%nproc=1
%NoSave
%Mem=1900MB
#P OB98/GEN NMR

erre ene a

0 1
  C     -335.251     253.251    -301.435
  O     -334.609     252.837    -302.639
  P     -334.514     253.881    -303.856
  C     -332.977     253.796    -305.935
  O     -333.954     253.113    -305.151
  C     -332.313     252.836    -306.925
  O     -331.541     251.837    -306.195
  C     -333.288     252.036    -307.812
  O     -333.711     252.608    -309.047
  C     -332.442     250.821    -308.165
  O     -331.590     251.122    -309.283
  C     -331.596     250.591    -306.914
  N     -332.878     245.639    -306.651
  C     -332.366     246.388    -307.650
  N     -332.053     247.703    -307.636
  C     -332.302     248.245    -306.430
  C     -332.823     247.599    -305.317
  C     -333.116     246.229    -305.454
  N     -333.644     245.470    -304.439
  N     -332.945     248.481    -304.264
  C     -332.531     249.640    -304.745
  N     -332.122     249.545    -306.049
  O     -333.860     255.184    -303.547
  O     -336.057     254.100    -304.237
  H     -331.050     250.330    -309.443
  H     -336.196     255.036    -304.488
  H     -332.190     245.862    -308.591
  H     -332.507     250.573    -304.186
  H     -330.561     250.305    -307.159
  H     -333.055     249.957    -308.467
  H     -334.168     251.725    -307.230
  H     -331.619     253.399    -307.572
  H     -332.215     254.227    -305.270
  H     -333.875     244.509    -304.636
  H     -333.887     245.911    -303.559
  H     -333.478     254.634    -306.418
  P     -334.738     253.847    -309.092
  C     -334.396     256.424    -309.348
  O     -333.844     255.123    -309.466
  O     -335.586     254.011    -307.876
  O     -335.558     253.566    -310.444
  H     -335.032     253.662    -311.255
  H     -333.582     257.154    -309.440
  H     -334.883     256.564    -308.378
  H     -335.112     256.608    -310.159
  H     -335.233     252.449    -300.727
  H     -336.266     253.518    -301.645
  H     -334.737     254.097    -301.029

 3  4  5  6  7  8  9  10  11  12  22  25  29  30  31  32 0
 6-311+G(2d,p)
 ****
 33  36  37 0
 6-311+G(2d,p)
 ****
 1  2  13  14  15  16  17  18  19  20  21  23  24  26 0
 3-21G
 ****
 27  28  34  35  38  39  40  41  42  43  44  45  46  47  48 0
 3-21G
 ****


