%nproc=1
%NoSave
%Mem=1900MB
#P OB98/GEN NMR

erre ene a

0 1
  C       79.952      25.743      35.069
  O       80.511      26.076      36.325
  H       78.968      26.211      34.990
  H       79.834      24.660      34.977
  H       80.584      26.120      34.259
  P       81.944      25.474      36.706
  C       80.657      23.721      38.099
  O       81.687      23.953      37.147
  C       80.546      22.231      38.406
  O       80.167      21.501      37.223
  C       81.841      21.595      38.908
  O       82.017      21.844      40.291
  C       81.564      20.131      38.609
  O       80.667      19.595      39.602
  C       80.849      20.216      37.248
  N       82.569      17.233      33.521
  C       81.774      16.924      34.607
  N       81.412      15.629      34.734
  N       81.381      17.800      35.494
  C       81.877      19.040      35.278
  C       82.686      19.465      34.250
  C       83.059      18.499      33.238
  O       83.742      18.739      32.246
  N       83.063      20.774      34.415
  C       82.439      21.153      35.513
  N       81.711      20.133      36.082
  O       82.748      26.264      37.694
  O       82.696      25.325      35.302
  H       81.213      19.307      40.356
  H       83.221      26.121      35.097
  H       82.846      16.514      32.873
  H       82.474      22.149      35.937
  H       80.087      19.437      37.134
  H       82.466      19.517      38.625
  H       81.803      14.888      34.173
  H       82.703      21.921      38.317
  H       80.878      15.373      35.557
  H       79.737      22.099      39.137
  H       79.722      24.094      37.670
  H       80.860      24.272      39.023
  P       83.456      22.222      40.900
  C       83.968      19.702      41.185
  O       84.380      20.939      40.630
  O       83.434      22.687      42.314
  O       84.054      23.284      39.869
  H       83.757      24.210      40.054
  H       84.675      18.942      40.925
  H       83.005      19.441      40.799
  H       83.913      19.789      42.250

 6  7  8  9  10  11  12  13  14  15  26  29  33  34 0
 6-311+G(2d,p)
 ****
 36  38  39  40  41 0
 6-311+G(2d,p)
 ****
 1  2  3  4  5  16  17  18  19  20  21  22  23  24  25 0
 3-21G
 ****
 27  28  30  31  32  35  37  42  43  44  45  46  47 0
 3-21G
 ****
 48  49 0
 3-21G
 ****


