%nproc=1
%NoSave
%Mem=1900MB
#P OB98/GEN NMR

erre ene a

0 1
  C     -160.991    -759.540     343.955
  O     -160.728    -760.758     343.276
  H     -160.068    -759.162     344.404
  H     -161.363    -758.806     343.231
  H     -161.750    -759.690     344.727
  P     -160.341    -762.025     344.185
  C     -160.789    -763.750     342.293
  O     -159.832    -763.156     343.163
  C     -160.086    -764.540     341.181
  O     -159.530    -763.607     340.222
  C     -158.935    -765.419     341.695
  O     -158.927    -766.652     340.963
  C     -157.690    -764.607     341.349
  O     -156.537    -765.434     341.213
  C     -158.128    -763.917     340.064
  N     -154.630    -761.764     337.021
  C     -155.282    -762.948     336.962
  N     -156.197    -763.447     337.812
  C     -156.480    -762.557     338.782
  C     -155.900    -761.306     338.972
  C     -154.929    -760.917     338.040
  N     -154.245    -759.727     338.115
  N     -156.427    -760.702     340.106
  C     -157.303    -761.571     340.584
  N     -157.362    -762.706     339.819
  O     -161.778    -762.557     344.654
  O     -159.438    -761.743     345.338
  H     -155.807    -764.888     340.855
  H     -162.101    -762.009     345.396
  H     -155.011    -763.592     336.121
  H     -157.902    -761.430     341.474
  H     -158.009    -764.563     339.179
  H     -157.500    -763.877     342.148
  H     -159.006    -765.635     342.759
  H     -160.838    -765.139     340.647
  H     -161.401    -762.956     341.843
  H     -153.522    -759.554     337.440
  H     -154.404    -759.110     338.907
  H     -161.437    -764.424     342.868
  P     -159.362    -767.975     341.767
  C     -161.073    -768.860     340.034
  O     -159.847    -769.082     340.714
  O     -160.713    -767.530     342.511
  O     -158.327    -768.433     342.750
  H     -160.667    -767.769     343.457
  H     -161.265    -769.676     339.369
  H     -161.010    -767.951     339.474
  H     -161.868    -768.786     340.747

 6  7  8  9  10  11  12  13  14  15  25  28  32  33  34  35 0
 6-311+G(2d,p)
 ****
 36  39  40 0
 6-311+G(2d,p)
 ****
 1  2  3  4  5  16  17  18  19  20  21  22  23  24 0
 3-21G
 ****
 26  27  29  30  31  37  38  41  42  43  44  45  46  47 0
 3-21G
 ****
 48 0
 3-21G
 ****


