%nproc=1
%NoSave
%Mem=1900MB
#P OB98/GEN NMR

erre ene a

0 1
  C       54.237    -110.934      20.673
  O       54.300    -111.368      19.329
  H       54.976    -110.148      20.843
  H       53.240    -110.530      20.864
  H       54.416    -111.770      21.356
  P       55.624    -112.157      18.885
  C       55.180    -114.210      20.416
  O       55.293    -113.716      19.090
  C       54.650    -115.645      20.408
  O       53.231    -115.617      20.098
  C       55.334    -116.544      19.373
  O       55.503    -117.847      19.932
  C       54.333    -116.595      18.232
  O       54.478    -117.767      17.439
  C       53.009    -116.508      18.986
  N       50.719    -117.019      14.452
  C       51.696    -117.729      15.055
  N       52.248    -117.529      16.271
  C       51.650    -116.500      16.898
  C       50.644    -115.684      16.411
  C       50.177    -115.971      15.117
  N       49.208    -115.231      14.480
  N       50.320    -114.710      17.337
  C       51.117    -114.939      18.363
  N       51.940    -116.007      18.142
  O       56.635    -111.828      20.086
  O       56.190    -111.783      17.558
  H       54.308    -118.547      18.009
  H       57.013    -110.938      19.956
  H       52.095    -118.563      14.484
  H       51.143    -114.360      19.276
  H       52.684    -117.480      19.380
  H       54.469    -115.724      17.581
  H       56.303    -116.158      19.052
  H       54.744    -116.060      21.419
  H       54.491    -113.570      20.977
  H       48.973    -115.473      13.531
  H       48.836    -114.409      14.936
  H       56.165    -114.184      20.896
  P       56.995    -118.441      19.948
  C       58.017    -118.434      22.329
  O       57.251    -119.144      21.367
  O       57.913    -117.131      20.000
  O       57.315    -119.283      18.755
  H       58.605    -117.181      19.314
  H       58.105    -119.021      23.219
  H       57.532    -117.508      22.559
  H       58.992    -118.237      21.934

 6  7  8  9  10  11  12  13  14  15  25  28  32  33  34  35 0
 6-311+G(2d,p)
 ****
 36  39  40 0
 6-311+G(2d,p)
 ****
 1  2  3  4  5  16  17  18  19  20  21  22  23  24 0
 3-21G
 ****
 26  27  29  30  31  37  38  41  42  43  44  45  46  47 0
 3-21G
 ****
 48 0
 3-21G
 ****


