%nproc=1
%NoSave
%Mem=1900MB
#P OB98/GEN NMR

erre ene a

0 1
  C      281.804     -14.103    -327.821
  O      280.448     -13.688    -327.642
  P      280.224     -12.341    -326.799
  C      277.839     -12.208    -327.810
  O      278.644     -12.111    -326.645
  C      276.364     -11.982    -327.468
  O      275.846     -12.987    -326.578
  C      276.100     -10.644    -326.789
  O      276.069      -9.608    -327.753
  C      274.749     -10.894    -326.131
  O      273.667     -10.679    -327.060
  C      274.833     -12.377    -325.738
  N      272.900     -12.984    -321.093
  C      272.280     -12.596    -322.265
  N      270.953     -12.361    -322.196
  N      272.907     -12.455    -323.405
  C      274.230     -12.725    -323.326
  C      274.950     -13.145    -322.233
  C      274.245     -13.295    -320.976
  O      274.744     -13.658    -319.917
  N      276.263     -13.379    -322.554
  C      276.358     -12.980    -323.810
  N      275.141     -12.637    -324.343
  O      280.688     -11.191    -327.810
  O      281.003     -12.301    -325.526
  H      273.820     -11.220    -327.857
  H      281.523     -10.793    -327.499
  H      272.368     -13.070    -320.242
  H      277.274     -12.945    -324.380
  H      273.890     -12.900    -325.943
  H      274.574     -10.213    -325.294
  H      270.407     -12.453    -321.353
  H      276.862     -10.455    -326.025
  H      270.479     -12.083    -323.046
  H      275.799     -12.038    -328.408
  H      277.964     -13.189    -328.270
  H      278.187     -11.471    -328.542
  P      277.238      -8.511    -327.715
  C      276.501      -7.262    -329.866
  O      276.699      -7.208    -328.469
  O      278.331      -9.114    -328.720
  O      277.823      -8.278    -326.363
  H      279.220      -9.026    -328.325
  H      275.696      -6.575    -330.134
  H      276.233      -8.269    -330.198
  H      277.418      -6.949    -330.373
  H      281.828     -15.006    -328.394
  H      282.253     -14.275    -326.865
  H      282.346     -13.338    -328.337

 3  4  5  6  7  8  9  10  11  12  23  26  30  31 0
 6-311+G(2d,p)
 ****
 33  35  36  37  38 0
 6-311+G(2d,p)
 ****
 1  2  13  14  15  16  17  18  19  20  21  22  24  25 0
 3-21G
 ****
 27  28  29  32  34  39  40  41  42  43  44  45  46  47  48  49 0
 3-21G
 ****


