%nproc=1
%NoSave
%Mem=1900MB
#P OB98/GEN NMR

erre ene a

0 1
  C     -465.018     364.331     621.023
  O     -466.421     364.231     620.861
  H     -464.601     363.325     621.123
  H     -464.771     364.895     621.928
  H     -464.569     364.815     620.153
  P     -467.282     365.584     620.852
  C     -469.034     366.612     619.249
  O     -468.225     365.482     619.564
  C     -469.716     366.411     617.902
  O     -468.744     366.423     616.840
  C     -470.442     365.078     617.791
  O     -471.663     365.101     618.508
  C     -470.569     364.945     616.284
  O     -471.658     365.730     615.789
  C     -469.214     365.523     615.808
  N     -468.227     364.487     615.527
  C     -467.432     364.690     614.396
  O     -467.575     365.692     613.701
  N     -466.507     363.726     614.071
  C     -466.375     362.674     614.813
  N     -465.434     361.762     614.431
  C     -467.182     362.431     616.023
  C     -468.083     363.367     616.318
  O     -466.525     366.869     620.964
  O     -468.305     365.383     622.067
  H     -472.461     365.387     616.228
  H     -467.924     365.722     622.898
  H     -467.033     361.540     616.613
  H     -468.717     363.267     617.187
  H     -469.346     366.122     614.900
  H     -470.734     363.913     615.987
  H     -469.797     364.269     618.145
  H     -470.409     367.251     617.741
  H     -464.916     361.967     613.591
  H     -468.372     367.488     619.211
  H     -465.186     360.953     614.975
  H     -469.779     366.782     620.035
  P     -472.260     363.754     619.148
  C     -473.751     363.299     621.199
  O     -472.796     364.177     620.598
  O     -471.344     362.573     619.117
  O     -473.608     363.529     618.317
  H     -473.419     363.202     617.401
  H     -474.034     363.682     622.157
  H     -473.318     362.328     621.316
  H     -474.616     363.231     620.573

 6  7  8  9  10  11  12  13  14  15  16  26  30  31  32  33  35 0
 6-311+G(2d,p)
 ****
 37  38 0
 6-311+G(2d,p)
 ****
 1  2  3  4  5  17  18  19  20  21  22  23  24  25 0
 3-21G
 ****
 27  28  29  34  36  39  40  41  42  43  44  45  46 0
 3-21G
 ****


