%nproc=1
%NoSave
%Mem=1900MB
#P OB98/GEN NMR

erre ene a

0 1
  C     -323.370    -402.845    -291.236
  O     -322.627    -403.800    -291.965
  H     -322.674    -402.142    -290.774
  H     -323.955    -403.330    -290.450
  H     -324.033    -402.288    -291.905
  P     -323.413    -405.018    -292.650
  C     -323.496    -404.015    -295.035
  O     -324.234    -404.401    -293.883
  C     -323.890    -404.873    -296.246
  O     -325.341    -404.894    -296.358
  C     -323.337    -404.346    -297.585
  O     -323.143    -405.480    -298.440
  C     -324.495    -403.500    -298.074
  O     -324.359    -403.175    -299.431
  C     -325.677    -404.385    -297.668
  N     -326.944    -403.668    -297.666
  C     -327.811    -403.945    -298.731
  O     -327.484    -404.745    -299.605
  N     -329.013    -403.286    -298.789
  C     -329.291    -402.377    -297.906
  N     -330.494    -401.750    -298.029
  C     -328.378    -402.015    -296.799
  C     -327.233    -402.696    -296.740
  O     -324.216    -405.873    -291.728
  O     -322.261    -405.865    -293.372
  H     -323.504    -402.722    -299.604
  H     -322.081    -406.677    -292.863
  H     -328.651    -401.241    -296.100
  H     -326.498    -402.502    -295.968
  H     -325.765    -405.251    -298.342
  H     -324.536    -402.550    -297.527
  H     -322.399    -403.793    -297.469
  H     -323.569    -405.904    -296.065
  H     -331.085    -402.026    -298.805
  H     -322.435    -404.152    -294.809
  H     -330.809    -401.015    -297.415
  H     -323.676    -402.957    -295.262
  P     -321.716    -406.196    -298.626
  C     -321.834    -407.681    -296.517
  O     -321.152    -406.626    -297.190
  O     -320.749    -405.416    -299.456
  O     -322.047    -407.601    -299.332
  H     -321.297    -407.859    -299.897
  H     -321.360    -407.869    -295.576
  H     -321.800    -408.567    -297.116
  H     -322.853    -407.399    -296.353

 6  7  8  9  10  11  12  13  14  15  16  26  30  31  32  33  35 0
 6-311+G(2d,p)
 ****
 37  38 0
 6-311+G(2d,p)
 ****
 1  2  3  4  5  17  18  19  20  21  22  23  24  25 0
 3-21G
 ****
 27  28  29  34  36  39  40  41  42  43  44  45  46 0
 3-21G
 ****


