%nproc=1
%NoSave
%Mem=1900MB
#P OB98/GEN NMR

erre ene a

0 1
  C      233.337     -17.907     -88.187
  O      233.526     -19.157     -87.553
  H      234.315     -17.473     -88.404
  H      232.786     -17.232     -87.527
  H      232.791     -18.038     -89.126
  P      232.198     -19.968     -87.165
  C      232.421     -21.639     -89.153
  O      232.397     -21.449     -87.747
  C      231.146     -22.352     -89.618
  O      231.119     -22.359     -91.076
  C      231.053     -23.818     -89.166
  O      229.661     -24.155     -89.042
  C      231.649     -24.547     -90.359
  O      231.370     -25.926     -90.301
  C      231.016     -23.740     -91.488
  N      231.970     -27.062     -95.254
  C      231.229     -27.166     -94.131
  N      231.011     -26.235     -93.181
  C      231.636     -25.085     -93.490
  C      232.418     -24.827     -94.603
  C      232.583     -25.884     -95.515
  N      233.344     -25.784     -96.656
  N      232.897     -23.529     -94.572
  C      232.409     -23.017     -93.461
  N      231.650     -23.922     -92.772
  O      231.084     -19.329     -88.119
  O      231.805     -19.906     -85.727
  H      231.930     -26.422     -90.935
  H      230.600     -18.629     -87.643
  H      230.748     -28.128     -93.971
  H      232.581     -22.008     -93.104
  H      229.951     -23.972     -91.608
  H      232.739     -24.447     -90.371
  H      231.562     -24.014     -88.218
  H      230.273     -21.776     -89.288
  H      233.298     -22.243     -89.407
  H      232.496     -20.667     -89.652
  H      233.424     -26.593     -97.250
  H      233.821     -24.917     -96.854
  P      229.068     -24.504     -87.589
  C      227.270     -22.635     -87.937
  O      227.563     -23.956     -87.505
  O      229.851     -23.465     -86.651
  O      229.283     -25.905     -87.120
  H      229.932     -23.834     -85.752
  H      226.225     -22.442     -87.810
  H      227.528     -22.532     -88.970
  H      227.835     -21.936     -87.357

 6  7  8  9  10  11  12  13  14  15  25  28  32  33  34  35 0
 6-311+G(2d,p)
 ****
 36  37  40 0
 6-311+G(2d,p)
 ****
 1  2  3  4  5  16  17  18  19  20  21  22  23  24 0
 3-21G
 ****
 26  27  29  30  31  38  39 41  42  43  44  45  46  47  48 0
 3-21G
 ****


