%nproc=1
%NoSave
%Mem=1900MB
#P OB98/GEN NMR

erre ene a

0 1
  C      562.626    -899.056    -305.125
  O      562.712    -898.106    -304.072
  P      562.198    -896.606    -304.377
  C      564.520    -895.506    -303.813
  O      563.133    -895.636    -303.514
  C      565.219    -894.666    -302.746
  O      564.704    -893.296    -302.772
  C      564.991    -895.146    -301.317
  O      565.789    -896.286    -301.005
  C      565.336    -893.886    -300.518
  O      566.767    -893.756    -300.380
  C      564.784    -892.776    -301.409
  N      563.477    -892.266    -300.984
  C      563.498    -891.166    -300.119
  O      564.557    -890.646    -299.734
  N      562.285    -890.726    -299.683
  C      561.073    -891.286    -299.976
  O      560.009    -890.856    -299.529
  C      561.114    -892.466    -300.868
  C      562.293    -892.906    -301.321
  O      560.796    -896.616    -303.601
  O      562.108    -896.296    -305.841
  H      560.794    -897.256    -302.853
  H      566.923    -892.966    -299.813
  H      562.280    -889.916    -299.095
  H      560.166    -892.936    -301.107
  H      562.336    -893.766    -301.970
  H      565.478    -891.946    -301.465
  H      564.914    -893.906    -299.505
  H      563.937    -895.406    -301.155
  H      566.290    -894.626    -302.972
  H      564.628    -895.006    -304.778
  H      564.985    -896.496    -303.875
  P      565.403    -897.116    -299.688
  C      567.489    -896.606    -298.184
  O      566.796    -897.536    -299.004
  O      564.863    -898.486    -300.331
  O      564.431    -896.406    -298.806
  H      565.396    -898.786    -301.061
  H      568.184    -897.176    -297.552
  H      566.819    -896.046    -297.565
  H      568.067    -895.926    -298.826
  H      562.998    -900.000    -304.785
  H      563.210    -898.721    -305.956
  H      561.605    -899.163    -305.426

 3  4  5  6  7  8  9  10  11  12  13  24  28  29  30  31  32 0
 6-311+G(2d,p)
 ****
 33  34 0
 6-311+G(2d,p)
 ****
 1  2  14  15  16  17  18  19  20  21  22  23  25  26  27 0
 3-21G
 ****
 35  36  37  38  39  40  41  42  43  44  45 0
 3-21G
 ****


