%nproc=1
%NoSave
%Mem=1900MB
#P OB98/GEN NMR

erre ene a

0 1
  C       28.423      44.592     -53.313
  O       27.449      44.100     -52.416
  H       29.393      44.168     -53.042
  H       28.484      45.682     -53.250
  H       28.178      44.290     -54.334
  P       25.954      44.648     -52.609
  C       26.078      46.216     -50.566
  O       25.988      46.128     -51.983
  C       24.701      46.485     -49.960
  O       24.860      46.709     -48.534
  C       24.004      47.718     -50.546
  O       22.598      47.472     -50.613
  C       24.274      48.793     -49.507
  O       23.322      49.851     -49.562
  C       24.250      47.972     -48.219
  N       24.403      52.212     -45.406
  C       23.486      51.735     -46.274
  N       23.515      50.577     -46.966
  C       24.607      49.859     -46.643
  C       25.626      50.212     -45.779
  C       25.501      51.462     -45.147
  N       26.445      51.974     -44.289
  N       26.595      49.230     -45.751
  C       26.162      48.294     -46.575
  N       24.973      48.642     -47.153
  O       24.870      43.764     -52.091
  O       25.908      44.941     -54.181
  H       22.476      49.527     -49.187
  H       26.704      45.421     -54.479
  H       22.619      52.369     -46.442
  H       26.676      47.365     -46.798
  H       23.231      47.788     -47.856
  H       25.266      49.227     -49.672
  H       24.379      47.996     -51.531
  H       24.083      45.587     -50.074
  H       26.766      47.019     -50.282
  H       26.274      52.877     -43.877
  H       27.268      51.430     -44.076
  H       26.479      45.267     -50.195
  P       21.882      47.435     -52.045
  C       21.575      49.961     -52.448
  O       22.255      48.779     -52.844
  O       20.430      47.092     -52.034
  O       22.727      46.323     -52.834
  H       22.113      45.761     -53.347
  H       21.907      50.782     -53.049
  H       21.785      50.165     -51.419
  H       20.521      49.827     -52.578

 6  7  8  9  10  11  12  13  14  15  25  28  32  33  34  35 0
 6-311+G(2d,p)
 ****
 36  39  40 0
 6-311+G(2d,p)
 ****
 1  2  3  4  5  16  17  18  19  20  21  22  23  24 0
 3-21G
 ****
 26  27  29  30  31  37  38  41  42  43  44  45  46  47 0
 3-21G
 ****
 48 0
 3-21G
 ****


