%nproc=1
%NoSave
%Mem=1900MB
#P OB98/GEN NMR

erre ene a

0 1
  C       85.462    -898.240     792.446
  O       85.205    -898.810     791.171
  P       86.383    -898.780     790.066
  C       85.371    -897.250     788.287
  O       86.341    -897.370     789.315
  C       85.360    -895.810     787.737
  O       86.483    -895.560     786.875
  C       84.120    -895.510     786.896
  O       82.981    -895.330     787.706
  C       84.577    -894.260     786.162
  O       84.434    -893.070     786.970
  C       86.100    -894.540     785.932
  N       86.417    -894.930     784.573
  C       86.207    -893.960     783.597
  O       85.756    -892.850     783.902
  N       86.518    -894.270     782.292
  C       86.965    -895.440     781.976
  N       87.246    -895.690     780.689
  C       87.176    -896.490     782.986
  C       86.893    -896.190     784.246
  O       86.465    -900.000     789.174
  O       87.722    -898.670     790.984
  H       84.822    -893.300     787.828
  H       88.455    -899.110     790.520
  H       87.559    -897.480     782.687
  H       86.993    -896.920     785.047
  H       86.694    -893.650     786.164
  H       84.021    -894.090     785.246
  H       83.946    -896.310     786.181
  H       85.403    -895.120     788.593
  H       87.079    -894.960     780.004
  H       84.387    -897.510     788.681
  H       87.651    -896.560     780.356
  H       85.594    -897.960     787.490
  P       82.043    -896.600     787.943
  C       80.235    -895.590     786.384
  O       81.053    -896.710     786.723
  O       81.105    -896.120     789.179
  O       82.779    -897.870     788.294
  H       80.878    -896.890     789.715
  H       79.871    -895.710     785.355
  H       80.840    -894.650     786.414
  H       79.397    -895.500     787.052
  H       84.592    -898.337     793.062
  H       85.705    -897.204     792.331
  H       86.283    -898.750     792.906

 3  4  5  6  7  8  9  10  11  12  13  23  27  28  29  30  32 0
 6-311+G(2d,p)
 ****
 34  35 0
 6-311+G(2d,p)
 ****
 1  2  14  15  16  17  18  19  20  21  22  24  25  26 0
 3-21G
 ****
 31  33  36  37  38  39  40  41  42  43  44  45  46 0
 3-21G
 ****


