%nproc=1
%NoSave
%Mem=1900MB
#P OB98/GEN NMR

erre ene a

0 1
  C      246.375    1121.901     334.608
  O      246.795    1123.253     334.389
  P      248.353    1123.596     334.342
  C      248.256    1124.962     336.531
  O      248.627    1124.953     335.166
  C      248.178    1126.405     337.074
  O      249.506    1126.972     337.171
  C      247.348    1127.324     336.173
  O      246.337    1128.050     336.878
  C      248.385    1128.169     335.459
  O      247.881    1129.413     334.997
  C      249.522    1128.227     336.482
  N      250.809    1128.497     335.849
  C      251.484    1129.640     336.256
  O      250.997    1130.460     337.065
  N      252.705    1129.861     335.681
  C      253.268    1129.121     334.695
  O      254.353    1129.380     334.170
  C      252.499    1127.939     334.251
  C      251.313    1127.691     334.845
  O      248.993    1123.533     332.993
  O      248.997    1122.481     335.326
  H      248.632    1129.910     334.576
  H      249.845    1122.192     334.923
  H      253.229    1130.683     335.977
  H      252.891    1127.339     333.458
  H      250.709    1126.850     334.526
  H      249.352    1129.022     337.227
  H      248.733    1127.615     334.577
  H      246.764    1126.750     335.421
  H      247.735    1126.349     338.074
  H      249.001    1124.403     337.102
  H      247.310    1124.413     336.652
  P      244.753    1127.869     336.682
  C      244.682    1129.991     335.187
  O      244.128    1129.277     336.293
  O      244.046    1127.140     337.782
  O      244.651    1127.022     335.323
  H      243.952    1126.345     335.395
  H      244.408    1131.026     335.289
  H      244.257    1129.599     334.266
  H      245.767    1129.904     335.178
  H      245.306    1121.855     334.609
  H      246.748    1121.560     335.551
  H      246.758    1121.278     333.827

 3  4  5  6  7  8  9  10  11  12  13  23  28  29  30  31  32 0
 6-311+G(2d,p)
 ****
 33  34 0
 6-311+G(2d,p)
 ****
 1  2  14  15  16  17  18  19  20  21  22  24  25  26  27 0
 3-21G
 ****
 35  36  37  38  39  40  41  42  43  44  45 0
 3-21G
 ****


