%nproc=1
%NoSave
%Mem=1900MB
#P OB98/GEN NMR

erre ene a

0 1
  C      213.341    -133.542    -106.047
  O      213.967    -134.130    -104.904
  P      213.766    -133.414    -103.477
  C      215.973    -132.054    -103.462
  O      214.545    -132.005    -103.492
  C      216.573    -130.690    -103.822
  O      216.241    -130.372    -105.196
  C      216.039    -129.513    -102.983
  O      216.710    -129.192    -101.763
  C      216.277    -128.340    -103.934
  O      217.648    -127.890    -103.820
  C      216.045    -128.937    -105.324
  N      212.979    -125.284    -107.169
  C      214.258    -125.260    -106.721
  N      215.005    -126.277    -106.248
  C      214.308    -127.420    -106.272
  C      212.993    -127.612    -106.686
  C      212.313    -126.463    -107.159
  N      211.013    -126.496    -107.597
  N      212.619    -128.930    -106.551
  C      213.680    -129.529    -106.034
  N      214.734    -128.662    -105.854
  O      214.017    -134.271    -102.284
  O      212.234    -132.950    -103.542
  H      217.657    -126.960    -104.102
  H      211.835    -133.061    -102.651
  H      214.750    -124.283    -106.749
  H      213.729    -130.581    -105.770
  H      216.774    -128.578    -106.056
  H      215.644    -127.482    -103.700
  H      214.967    -129.624    -102.796
  H      217.665    -130.735    -103.736
  H      216.325    -132.811    -104.176
  H      210.590    -125.624    -107.873
  H      210.490    -127.356    -107.551
  H      216.263    -132.402    -102.464
  P      216.074    -129.563    -100.342
  C      215.612    -127.105     -99.532
  O      215.085    -128.346     -99.983
  O      217.065    -129.899     -99.273
  O      215.072    -130.749    -100.711
  H      214.301    -130.472    -101.237
  H      214.813    -126.357     -99.555
  H      216.425    -126.767    -100.187
  H      215.982    -127.212     -98.507
  H      213.564    -134.126    -106.916
  H      213.709    -132.546    -106.183
  H      212.282    -133.514    -105.898

 3  4  5  6  7  8  9  10  11  12  22  25  29  30  31  32 0
 6-311+G(2d,p)
 ****
 33  36  37 0
 6-311+G(2d,p)
 ****
 1  2  13  14  15  16  17  18  19  20  21  23  24  26 0
 3-21G
 ****
 27  28  34  35  38  39  40  41  42  43  44  45  46  47  48 0
 3-21G
 ****


