%nproc=1
%NoSave
%Mem=1900MB
#P OB98/GEN NMR

erre ene a

0 1
  C      341.966    -512.927     176.196
  O      341.731    -513.628     177.400
  P      340.320    -514.351     177.652
  C      341.117    -515.547     179.786
  O      340.179    -514.633     179.226
  C      340.904    -515.677     181.289
  O      341.317    -514.469     181.972
  C      339.454    -515.881     181.694
  O      338.991    -517.186     181.394
  C      339.517    -515.553     183.182
  O      340.003    -516.672     183.933
  C      340.544    -514.403     183.198
  N      339.919    -513.096     183.362
  C      339.316    -512.850     184.593
  O      339.258    -513.738     185.451
  N      338.782    -511.606     184.834
  C      338.745    -510.731     183.871
  N      338.261    -509.499     184.178
  C      339.228    -511.012     182.504
  C      339.819    -512.193     182.324
  O      340.041    -515.525     176.776
  O      339.245    -513.187     177.406
  H      338.559    -513.517     176.790
  H      339.390    -517.413     183.753
  H      339.109    -510.274     181.723
  H      340.220    -512.478     181.361
  H      341.264    -514.548     184.013
  H      338.534    -515.288     183.594
  H      338.817    -515.145     181.185
  H      341.522    -516.509     181.653
  H      337.956    -509.336     185.131
  H      342.123    -515.181     179.586
  H      338.484    -508.673     183.625
  H      340.998    -516.527     179.293
  P      337.628    -517.299     180.559
  C      337.439    -519.760     181.351
  O      336.789    -518.518     181.174
  O      338.115    -517.859     179.134
  O      336.876    -516.018     180.415
  H      337.576    -517.456     178.421
  H      336.871    -520.352     182.076
  H      338.460    -519.629     181.722
  H      337.466    -520.298     180.399
  H      342.954    -512.516     176.210
  H      341.252    -512.136     176.098
  H      341.870    -513.598     175.368

 3  4  5  6  7  8  9  10  11  12  13  24  27  28  29  30  32 0
 6-311+G(2d,p)
 ****
 34  35 0
 6-311+G(2d,p)
 ****
 1  2  14  15  16  17  18  19  20  21  22  23  25  26 0
 3-21G
 ****
 31  33  36  37  38  39  40  41  42  43  44  45  46 0
 3-21G
 ****


