%nproc=1
%NoSave
%Mem=1900MB
#P OB98/GEN NMR

erre ene a

0 1
  C     -106.975    -242.116    -104.666
  O     -107.547    -243.341    -105.072
  H     -106.589    -242.230    -103.650
  H     -107.740    -241.338    -104.668
  H     -106.151    -241.822    -105.322
  P     -107.767    -243.607    -106.633
  C     -109.370    -245.537    -106.015
  O     -109.167    -244.378    -106.815
  C     -110.832    -245.681    -105.591
  O     -111.129    -244.721    -104.552
  C     -111.807    -245.409    -106.736
  O     -112.100    -246.544    -107.541
  C     -113.049    -244.935    -105.988
  O     -113.893    -246.039    -105.615
  C     -112.475    -244.255    -104.736
  N     -115.210    -240.040    -105.692
  C     -115.551    -241.364    -105.910
  N     -116.751    -241.576    -106.486
  N     -114.769    -242.367    -105.603
  C     -113.561    -241.992    -105.128
  C     -113.103    -240.714    -104.889
  C     -114.003    -239.610    -105.159
  O     -113.756    -238.424    -104.965
  N     -111.802    -240.720    -104.438
  C     -111.453    -241.990    -104.490
  N     -112.508    -242.809    -104.827
  O     -106.698    -244.755    -106.971
  O     -107.568    -242.419    -107.526
  H     -114.664    -245.681    -105.130
  H     -106.393    -244.655    -107.892
  H     -115.860    -239.312    -105.919
  H     -110.468    -242.374    -104.258
  H     -113.039    -244.533    -103.838
  H     -113.658    -244.276    -106.616
  H     -117.354    -240.840    -106.819
  H     -111.451    -244.585    -107.361
  H     -116.958    -242.517    -106.834
  H     -110.985    -246.677    -105.158
  H     -108.732    -245.423    -105.138
  H     -109.039    -246.429    -106.548
  P     -111.236    -246.867    -108.846
  C     -112.371    -249.231    -108.922
  O     -111.918    -248.088    -109.614
  O     -109.899    -247.506    -108.246
  O     -110.946    -245.698    -109.734
  H     -109.188    -246.843    -108.203
  H     -112.793    -249.925    -109.618
  H     -113.115    -248.944    -108.209
  H     -111.548    -249.690    -108.414

 6  7  8  9  10  11  12  13  14  15  26  29  33  34 0
 6-311+G(2d,p)
 ****
 36  38  39  40  41 0
 6-311+G(2d,p)
 ****
 1  2  3  4  5  16  17  18  19  20  21  22  23  24  25 0
 3-21G
 ****
 27  28  30  31  32  35  37  42  43  44  45  46  47 0
 3-21G
 ****
 48  49 0
 3-21G
 ****


