%nproc=1
%NoSave
%Mem=1900MB
#P OB98/GEN NMR

erre ene a

0 1
  C     -233.303     186.060     129.712
  O     -233.204     185.038     128.740
  H     -233.427     185.625     130.707
  H     -232.383     186.652     129.699
  H     -234.149     186.716     129.486
  P     -234.447     184.029     128.622
  C     -233.114     182.067     129.695
  O     -234.223     182.951     129.792
  C     -233.425     180.978     128.673
  O     -232.250     180.169     128.438
  C     -234.514     180.008     129.120
  O     -235.820     180.513     128.896
  C     -234.221     178.820     128.220
  O     -234.707     179.084     126.893
  C     -232.685     178.796     128.230
  N     -229.543     174.878     129.239
  C     -229.845     175.519     128.089
  N     -230.676     176.567     127.908
  C     -231.214     176.956     129.074
  C     -230.995     176.404     130.328
  C     -230.116     175.309     130.389
  N     -229.829     174.631     131.552
  N     -231.743     177.062     131.284
  C     -232.384     178.002     130.623
  N     -232.122     177.959     129.279
  O     -234.133     183.191     127.295
  O     -235.800     184.657     128.611
  H     -235.605     179.460     126.987
  H     -234.928     182.703     127.005
  H     -229.358     175.138     127.196
  H     -233.056     178.729     131.064
  H     -232.261     178.452     127.279
  H     -234.703     177.901     128.563
  H     -234.379     179.705     130.166
  H     -233.693     181.461     127.725
  H     -232.934     181.612     130.674
  H     -229.308     173.773     131.471
  H     -230.361     174.849     132.383
  H     -232.227     182.629     129.388
  P     -236.891     180.352     130.082
  C     -237.962     178.292     128.914
  O     -237.338     178.809     130.083
  O     -238.178     181.108     129.506
  O     -236.449     180.903     131.399
  H     -238.690     181.521     130.227
  H     -238.201     177.260     129.064
  H     -237.296     178.387     128.082
  H     -238.859     178.840     128.716

 6  7  8  9  10  11  12  13  14  15  25  28  32  33  34  35 0
 6-311+G(2d,p)
 ****
 36  39  40 0
 6-311+G(2d,p)
 ****
 1  2  3  4  5  16  17  18  19  20  21  22  23  24 0
 3-21G
 ****
 26  27  29  30  31  37  38  41  42  43  44  45  46  47 0
 3-21G
 ****
 48 0
 3-21G
 ****


