%nproc=1
%NoSave
%Mem=1900MB
#P OB98/GEN NMR

erre ene a

0 1
  C      -73.028     -17.947     -69.599
  O      -74.000     -18.231     -70.586
  H      -73.250     -18.542     -68.709
  H      -73.044     -16.889     -69.327
  H      -72.035     -18.222     -69.964
  P      -74.060     -17.285     -71.882
  C      -72.339     -16.494     -73.631
  O      -72.537     -17.149     -72.381
  C      -70.952     -15.857     -73.707
  O      -70.876     -14.694     -72.855
  C      -69.825     -16.760     -73.233
  O      -69.588     -17.886     -74.047
  C      -68.702     -15.762     -72.998
  O      -68.008     -15.430     -74.200
  C      -69.489     -14.532     -72.482
  N      -69.337     -14.340     -71.045
  C      -68.125     -13.804     -70.627
  O      -67.206     -13.520     -71.395
  N      -67.984     -13.631     -69.277
  C      -68.897     -13.979     -68.326
  O      -68.701     -13.818     -67.127
  C      -70.145     -14.578     -68.826
  C      -70.307     -14.727     -70.143
  O      -74.757     -15.970     -71.692
  O      -74.726     -18.211     -73.002
  H      -67.256     -14.862     -73.946
  H      -75.041     -17.672     -73.769
  H      -67.117     -13.229     -68.954
  H      -70.887     -14.878     -68.099
  H      -71.221     -15.165     -70.536
  H      -69.139     -13.621     -72.984
  H      -67.960     -16.136     -72.289
  H      -70.096     -17.158     -72.247
  H      -70.788     -15.524     -74.738
  H      -73.100     -15.712     -73.723
  H      -72.470     -17.214     -74.445
  P      -68.786     -19.175     -73.565
  C      -69.263     -21.062     -71.820
  O      -69.439     -19.703     -72.200
  O      -67.296     -19.108     -73.652
  O      -69.287     -20.285     -74.627
  H      -68.534     -20.889     -74.787
  H      -69.762     -21.240     -70.890
  H      -68.219     -21.269     -71.710
  H      -69.676     -21.699     -72.574

 6  7  8  9  10  11  12  13  14  15  16  26  31  32  33  34  35 0
 6-311+G(2d,p)
 ****
 36  37 0
 6-311+G(2d,p)
 ****
 1  2  3  4  5  17  18  19  20  21  22  23  24  25 0
 3-21G
 ****
 27  28  29  30  38  39  40  41  42  43  44  45 0
 3-21G
 ****


