%nproc=1
%NoSave
%Mem=1900MB
#P OB98/GEN NMR

erre ene a

0 1
  C       63.277    -237.774     -96.548
  O       64.458    -238.040     -97.301
  P       65.049    -239.529     -97.299
  C       65.407    -239.589     -99.920
  O       65.915    -239.770     -98.617
  C       66.578    -239.458    -100.909
  O       67.432    -238.358    -100.530
  C       67.455    -240.705    -100.969
  O       66.958    -241.661    -101.889
  C       68.797    -240.125    -101.365
  O       68.820    -239.832    -102.775
  C       68.815    -238.815    -100.541
  N       69.304    -238.876     -99.147
  C       70.081    -237.837     -98.639
  O       70.408    -236.841     -99.281
  N       70.478    -237.964     -97.334
  C       70.050    -238.911     -96.451
  O       70.392    -238.941     -95.276
  C       69.113    -239.898     -96.995
  C       68.799    -239.846     -98.291
  O       63.761    -240.449     -97.513
  O       65.797    -239.894     -96.053
  H       68.273    -239.040    -102.914
  H       63.605    -241.005     -96.727
  H       71.100    -237.258     -96.972
  H       68.710    -240.639     -96.317
  H       68.106    -240.576     -98.705
  H       69.410    -238.047    -101.050
  H       69.603    -240.834    -101.191
  H       67.561    -241.143     -99.971
  H       66.169    -239.242    -101.903
  H       64.776    -238.698     -99.971
  H       64.776    -240.441    -100.190
  P       67.232    -243.219    -101.647
  C       64.963    -243.628    -100.525
  O       65.786    -243.916    -101.639
  O       68.120    -243.558    -100.497
  O       67.846    -243.713    -103.043
  H       68.830    -243.720    -103.010
  H       63.963    -244.027    -100.717
  H       64.890    -242.549    -100.371
  H       65.370    -244.106     -99.630
  H       63.013    -236.742     -96.651
  H       63.454    -237.995     -95.516
  H       62.477    -238.385     -96.911

 3  4  5  6  7  8  9  10  11  12  13  23  28  29  30  31  32 0
 6-311+G(2d,p)
 ****
 33  34 0
 6-311+G(2d,p)
 ****
 1  2  14  15  16  17  18  19  20  21  22  24  25  26  27 0
 3-21G
 ****
 35  36  37  38  39  40  41  42  43  44  45 0
 3-21G
 ****


