%nproc=1
%NoSave
%Mem=1900MB
#P OB98/GEN NMR

erre ene a

0 1
  C       61.728      90.536     -62.739
  O       60.862      91.021     -61.727
  P       61.533      91.668     -60.419
  C       60.236      90.071     -58.827
  O       61.499      90.533     -59.287
  C       60.294      88.574     -58.540
  O       60.591      87.833     -59.741
  C       61.374      88.172     -57.544
  O       60.975      88.378     -56.200
  C       61.502      86.686     -57.837
  O       60.443      85.962     -57.186
  C       61.322      86.642     -59.361
  N       65.329      83.767     -60.485
  C       64.132      83.420     -59.890
  N       64.013      82.137     -59.484
  N       63.142      84.252     -59.711
  C       63.408      85.505     -60.159
  C       64.553      85.967     -60.767
  C       65.646      85.037     -60.948
  O       66.748      85.296     -61.419
  N       64.447      87.294     -61.088
  C       63.241      87.637     -60.680
  N       62.589      86.597     -60.070
  O       60.433      92.717     -59.920
  O       62.859      92.310     -60.652
  H       59.654      86.541     -57.209
  H       60.836      93.355     -59.302
  H       66.065      83.089     -60.595
  H       62.808      88.622     -60.788
  H       60.728      85.780     -59.676
  H       62.445      86.261     -57.479
  H       64.762      81.463     -59.536
  H       62.327      88.670     -57.766
  H       63.171      81.871     -58.988
  H       59.305      88.258     -58.183
  H       59.481      90.268     -59.592
  H       59.960      90.620     -57.921
  P       61.662      89.603     -55.421
  C       62.613      87.950     -53.658
  O       62.885      88.959     -54.610
  O       60.591      89.956     -54.287
  O       61.986      90.778     -56.282
  H       60.671      90.891     -54.023
  H       63.551      87.446     -53.403
  H       61.916      87.207     -54.057
  H       62.197      88.396     -52.752
  H       61.147      90.136     -63.544
  H       62.354      89.768     -62.335
  H       62.336      91.338     -63.102

 3  4  5  6  7  8  9  10  11  12  23  26  30  31 0
 6-311+G(2d,p)
 ****
 33  35  36  37  38 0
 6-311+G(2d,p)
 ****
 1  2  13  14  15  16  17  18  19  20  21  22  24  25 0
 3-21G
 ****
 27  28  29  32  34  39  40  41  42  43  44  45  46  47  48  49 0
 3-21G
 ****


