%nproc=1
%NoSave
%Mem=1900MB
#P OB98/GEN NMR

erre ene a

0 1
  C     -172.616     139.510    -631.654
  O     -173.791     139.277    -632.407
  P     -174.711     140.492    -632.889
  C     -175.980     140.346    -630.671
  O     -175.304     141.204    -631.578
  C     -176.963     141.126    -629.797
  O     -177.500     140.238    -628.782
  C     -176.357     142.339    -629.071
  O     -177.382     143.334    -629.002
  C     -176.074     141.797    -627.683
  O     -175.958     142.813    -626.701
  C     -177.279     140.882    -627.505
  N     -177.336     139.943    -622.479
  C     -177.544     141.076    -623.181
  N     -177.489     141.249    -624.518
  C     -177.180     140.094    -625.135
  C     -176.915     138.866    -624.548
  C     -177.016     138.807    -623.141
  N     -176.845     137.657    -622.411
  N     -176.575     137.932    -625.509
  C     -176.651     138.588    -626.656
  N     -177.067     139.877    -626.480
  O     -175.731     140.147    -633.927
  O     -173.665     141.569    -633.450
  H     -176.749     143.377    -626.740
  H     -173.697     141.586    -634.426
  H     -177.795     141.958    -622.594
  H     -176.407     138.179    -627.626
  H     -178.190     141.434    -627.243
  H     -175.144     141.224    -627.694
  H     -175.463     142.746    -629.560
  H     -177.805     141.443    -630.427
  H     -175.231     139.872    -630.032
  H     -177.075     137.696    -621.429
  H     -176.877     136.761    -622.894
  H     -176.509     139.564    -631.224
  P     -177.005     144.858    -628.673
  C     -178.823     144.751    -626.875
  O     -177.497     145.134    -627.171
  O     -177.448     145.859    -629.685
  O     -175.409     144.822    -628.530
  H     -175.050     145.729    -628.605
  H     -179.517     145.524    -627.237
  H     -178.935     144.653    -625.794
  H     -179.078     143.794    -627.345
  H     -172.144     138.576    -631.431
  H     -172.870     140.008    -630.742
  H     -171.945     140.122    -632.220

 3  4  5  6  7  8  9  10  11  12  22  25  29  30  31  32 0
 6-311+G(2d,p)
 ****
 33  36  37 0
 6-311+G(2d,p)
 ****
 1  2  13  14  15  16  17  18  19  20  21  23  24  26 0
 3-21G
 ****
 27  28  34  35  38  39  40  41  42  43  44  45  46  47  48 0
 3-21G
 ****


