%nproc=1
%NoSave
%Mem=1900MB
#P OB98/GEN NMR

erre ene a

0 1
  C      552.113    -898.520    -302.328
  O      553.222    -897.660    -302.129
  P      554.419    -898.190    -301.195
  C      555.158    -896.170    -299.680
  O      555.334    -896.910    -300.882
  C      556.494    -895.610    -299.200
  O      557.368    -896.690    -298.781
  C      557.281    -894.850    -300.267
  O      556.766    -893.550    -300.489
  C      558.693    -894.890    -299.678
  O      558.843    -893.870    -298.670
  C      558.744    -896.280    -299.041
  N      559.436    -897.280    -299.854
  C      560.097    -898.290    -299.153
  O      560.097    -898.340    -297.913
  N      560.781    -899.200    -299.906
  C      560.917    -899.170    -301.267
  O      561.575    -900.000    -301.895
  C      560.225    -898.060    -301.955
  C      559.531    -897.170    -301.232
  O      555.264    -899.040    -302.256
  O      553.942    -898.960    -300.001
  H      555.142    -898.710    -303.173
  H      558.094    -893.980    -298.036
  H      561.227    -899.950    -299.421
  H      560.326    -898.010    -303.033
  H      559.025    -896.350    -301.723
  H      559.219    -896.240    -298.064
  H      559.465    -894.710    -300.438
  H      557.270    -895.400    -301.218
  H      556.316    -894.960    -298.331
  H      554.753    -896.820    -298.912
  H      554.443    -895.350    -299.853
  P      555.624    -893.380    -301.609
  C      556.630    -891.200    -302.660
  O      555.566    -891.810    -301.950
  O      554.294    -893.640    -300.746
  O      555.813    -894.290    -302.775
  H      554.319    -893.220    -299.892
  H      556.250    -890.260    -303.091
  H      557.003    -891.830    -303.444
  H      557.440    -890.960    -301.955
  H      551.400    -898.041    -302.965
  H      551.658    -898.739    -301.385
  H      552.444    -899.429    -302.784

 3  4  5  6  7  8  9  10  11  12  13  24  28  29  30  31  32 0
 6-311+G(2d,p)
 ****
 33  34 0
 6-311+G(2d,p)
 ****
 1  2  14  15  16  17  18  19  20  21  22  23  25  26  27 0
 3-21G
 ****
 35  36  37  38  39  40  41  42  43  44  45 0
 3-21G
 ****


