%nproc=1
%NoSave
%Mem=1900MB
#P OB98/GEN NMR

erre ene a

0 1
  C      144.941    -454.238     174.606
  O      145.370    -455.253     175.492
  P      146.538    -456.282     175.146
  C      145.391    -458.302     176.320
  O      146.523    -457.445     176.264
  C      145.766    -459.797     176.361
  O      146.594    -460.121     175.227
  C      146.622    -460.080     177.611
  O      146.001    -460.313     178.861
  C      147.615    -461.161     177.174
  O      147.197    -462.473     177.561
  C      147.628    -461.027     175.648
  N      151.927    -462.359     173.308
  C      150.743    -463.075     173.431
  N      150.789    -464.362     173.039
  N      149.636    -462.556     173.908
  C      149.779    -461.280     174.343
  C      150.892    -460.475     174.259
  C      152.095    -461.037     173.689
  O      153.184    -460.470     173.644
  N      150.689    -459.260     174.872
  C      149.467    -459.346     175.354
  N      148.889    -460.569     175.097
  O      147.854    -455.702     174.726
  O      145.915    -457.044     173.866
  H      146.291    -462.598     177.251
  H      146.659    -457.265     173.268
  H      152.772    -462.832     172.998
  H      148.969    -458.573     175.932
  H      147.404    -461.990     175.176
  H      148.595    -460.992     177.638
  H      151.651    -464.829     172.808
  H      147.237    -459.189     177.784
  H      149.998    -464.956     173.275
  H      144.883    -460.429     176.284
  H      144.769    -458.093     175.440
  H      144.792    -458.062     177.205
  P      146.417    -459.661     180.262
  C      146.954    -461.838     181.499
  O      146.098    -460.713     181.427
  O      145.314    -458.518     180.502
  O      147.791    -459.070     180.302
  H      145.665    -457.848     181.126
  H      146.484    -462.615     182.102
  H      147.903    -461.544     181.973
  H      147.170    -462.237     180.495
  H      144.150    -453.679     175.060
  H      144.589    -454.682     173.699
  H      145.760    -453.585     174.389

 3  4  5  6  7  8  9  10  11  12  23  26  30  31 0
 6-311+G(2d,p)
 ****
 33  35  36  37  38 0
 6-311+G(2d,p)
 ****
 1  2  13  14  15  16  17  18  19  20  21  22  24  25 0
 3-21G
 ****
 27  28  29  32  34  39  40  41  42  43  44  45  46  47  48  49 0
 3-21G
 ****


