%nproc=1
%NoSave
%Mem=1900MB
#P OB98/GEN NMR

erre ene a

0 1
  C     -262.114     -67.347     337.441
  O     -261.613     -66.027     337.561
  P     -260.442     -65.495     336.604
  C     -261.463     -63.134     336.670
  O     -260.312     -63.930     336.939
  C     -261.529     -61.963     337.641
  O     -261.872     -62.475     338.954
  C     -260.227     -61.187     337.845
  O     -259.981     -60.182     336.869
  C     -260.497     -60.528     339.190
  O     -261.349     -59.381     339.008
  C     -261.244     -61.629     339.948
  N     -258.723     -61.834     344.395
  C     -259.551     -60.907     343.868
  N     -260.169     -60.916     342.668
  C     -259.895     -62.049     342.005
  C     -259.074     -63.087     342.413
  C     -258.470     -62.951     343.676
  N     -257.642     -63.911     344.221
  N     -259.019     -64.078     341.449
  C     -259.805     -63.646     340.486
  N     -260.361     -62.432     340.777
  O     -260.610     -65.842     335.168
  O     -259.106     -66.104     337.240
  H     -260.838     -58.728     338.491
  H     -258.379     -66.064     336.591
  H     -259.741     -60.036     344.488
  H     -259.995     -64.175     339.563
  H     -262.043     -61.232     340.587
  H     -259.585     -60.172     339.681
  H     -259.370     -61.867     337.941
  H     -262.335     -61.293     337.322
  H     -262.353     -63.765     336.800
  H     -257.359     -63.788     345.182
  H     -257.586     -64.809     343.760
  H     -261.437     -62.791     335.632
  P     -258.523     -59.504     336.869
  C     -258.239     -59.701     334.276
  O     -258.346     -58.869     335.408
  O     -257.421     -60.401     337.316
  O     -258.726     -58.223     337.807
  H     -259.313     -57.536     337.450
  H     -258.285     -59.080     333.375
  H     -259.056     -60.425     334.243
  H     -257.278     -60.226     334.285
  H     -262.886     -67.503     338.166
  H     -261.321     -68.046     337.608
  H     -262.514     -67.489     336.459

 3  4  5  6  7  8  9  10  11  12  22  25  29  30  31  32 0
 6-311+G(2d,p)
 ****
 33  36  37 0
 6-311+G(2d,p)
 ****
 1  2  13  14  15  16  17  18  19  20  21  23  24  26 0
 3-21G
 ****
 27  28  34  35  38  39  40  41  42  43  44  45  46  47  48 0
 3-21G
 ****


