%nproc=1
%NoSave
%Mem=1900MB
#P OB98/GEN NMR

erre ene a

0 1
  C      -69.891     181.384     287.532
  O      -69.704     179.986     287.560
  H      -69.024     181.864     287.993
  H      -70.783     181.655     288.103
  H      -69.984     181.745     286.504
  P      -70.746     179.049     286.783
  C      -70.742     177.755     284.549
  O      -70.110     178.747     285.342
  C      -70.250     177.825     283.099
  O      -70.464     179.181     282.599
  C      -68.749     177.512     282.923
  O      -68.591     176.933     281.621
  C      -68.157     178.909     282.985
  O      -66.812     178.945     282.582
  C      -69.185     179.655     282.123
  N      -69.119     181.109     282.188
  C      -68.090     181.743     281.500
  O      -67.231     181.160     280.836
  N      -68.061     183.109     281.597
  C      -68.946     183.885     282.283
  O      -68.886     185.107     282.306
  C      -70.009     183.160     282.996
  C      -70.049     181.827     282.913
  O      -72.159     179.529     286.762
  O      -70.614     177.637     287.531
  H      -71.366     177.520     288.141
  H      -66.317     178.242     283.055
  H      -67.321     183.583     281.100
  H      -70.723     183.743     283.560
  H      -70.827     181.266     283.420
  H      -69.096     179.338     281.079
  H      -68.171     179.276     284.014
  H      -68.364     176.823     283.680
  H      -70.867     177.159     282.483
  H      -71.823     177.930     284.580
  H      -70.530     176.767     284.971
  P      -68.416     175.357     281.370
  C      -69.800     173.464     282.473
  O      -69.823     174.645     281.675
  O      -67.266     174.750     282.103
  O      -68.241     175.197     279.787
  H      -67.735     174.386     279.594
  H      -70.798     173.097     282.596
  H      -69.382     173.689     283.432
  H      -69.203     172.719     281.990

 6  7  8  9  10  11  12  13  14  15  16  27  31  32  33  34  35 0
 6-311+G(2d,p)
 ****
 36  37 0
 6-311+G(2d,p)
 ****
 1  2  3  4  5  17  18  19  20  21  22  23  24  25 0
 3-21G
 ****
 26  28  29  30  38  39  40  41  42  43  44  45 0
 3-21G
 ****


