%nproc=1
%NoSave
%Mem=1900MB
#P OB98/GEN NMR

erre ene a

0 1
  C      715.901    -349.826     935.371
  O      717.286    -350.060     935.161
  P      718.308    -348.896     935.595
  C      718.793    -349.694     938.027
  O      719.288    -349.517     936.692
  C      719.368    -350.977     938.643
  O      718.896    -352.131     937.937
  C      720.881    -351.059     938.599
  O      721.507    -350.318     939.640
  C      721.102    -352.552     938.808
  O      720.993    -352.870     940.206
  C      719.930    -353.162     938.028
  N      722.451    -356.649     935.370
  C      722.092    -356.640     936.697
  N      722.538    -357.671     937.454
  N      721.388    -355.686     937.271
  C      721.019    -354.705     936.399
  C      721.300    -354.618     935.051
  C      722.101    -355.664     934.449
  O      722.484    -355.708     933.296
  N      720.756    -353.489     934.501
  C      720.137    -352.898     935.507
  N      720.314    -353.586     936.689
  O      717.389    -347.895     936.451
  O      718.976    -348.196     934.455
  H      720.166    -352.437     940.527
  H      717.829    -347.026     936.535
  H      723.007    -357.396     934.990
  H      719.578    -351.976     935.424
  H      719.498    -354.009     938.546
  H      722.082    -352.892     938.476
  H      723.151    -358.402     937.103
  H      721.273    -350.771     937.616
  H      722.364    -357.650     938.458
  H      719.016    -351.028     939.681
  H      717.696    -349.751     937.999
  H      719.087    -348.821     938.614
  P      722.905    -349.602     939.297
  C      721.688    -347.669     938.041
  O      722.555    -348.061     939.104
  O      723.217    -350.118     937.813
  O      724.012    -349.935     940.258
  H      724.172    -350.114     937.635
  H      721.355    -346.647     938.227
  H      720.809    -348.318     938.002
  H      722.240    -347.718     937.091
  H      715.341    -350.676     935.040
  H      715.597    -348.962     934.818
  H      715.721    -349.664     936.413

 3  4  5  6  7  8  9  10  11  12  23  26  30  31 0
 6-311+G(2d,p)
 ****
 33  35  36  37  38 0
 6-311+G(2d,p)
 ****
 1  2  13  14  15  16  17  18  19  20  21  22  24  25 0
 3-21G
 ****
 27  28  29  32  34  39  40  41  42  43  44  45  46  47  48  49 0
 3-21G
 ****


