%nproc=1
%NoSave
%Mem=1900MB
#P OB98/GEN NMR

erre ene a

0 1
  C       34.373    -180.256     -19.573
  O       33.064    -180.824     -19.602
  P       31.789    -179.850     -19.624
  C       32.351    -178.692     -17.399
  O       32.142    -178.519     -18.795
  C       31.208    -178.097     -16.559
  O       31.169    -176.649     -16.692
  C       29.813    -178.627     -16.923
  O       29.067    -178.708     -15.704
  C       29.274    -177.528     -17.814
  O       27.860    -177.578     -17.943
  C       29.832    -176.293     -17.101
  N       29.828    -175.109     -17.944
  C       28.696    -174.296     -17.892
  O       27.715    -174.641     -17.234
  N       28.694    -173.123     -18.615
  C       29.675    -172.874     -19.431
  N       29.645    -171.696     -20.111
  C       30.801    -173.802     -19.644
  C       30.823    -174.873     -18.859
  O       30.488    -180.487     -19.272
  O       31.774    -179.322     -21.141
  H       27.604    -178.467     -18.272
  H       30.847    -179.198     -21.426
  H       31.550    -173.589     -20.392
  H       31.612    -175.612     -18.934
  H       29.261    -176.076     -16.189
  H       29.707    -177.619     -18.818
  H       29.834    -179.614     -17.398
  H       31.421    -178.320     -15.504
  H       28.857    -171.081     -19.971
  H       33.291    -178.212     -17.116
  H       30.397    -171.405     -20.725
  H       32.479    -179.762     -17.187
  P       28.800    -180.150     -15.049
  C       26.663    -180.613     -16.460
  O       27.968    -181.025     -16.103
  O       27.680    -179.805     -13.948
  O       29.974    -180.801     -14.396
  H       27.717    -180.478     -13.240
  H       26.369    -181.141     -17.372
  H       26.627    -179.538     -16.656
  H       25.964    -180.870     -15.658
  H       35.102    -181.040     -19.561
  H       34.482    -179.655     -18.694
  H       34.517    -179.648     -20.441

 3  4  5  6  7  8  9  10  11  12  13  23  27  28  29  30  32 0
 6-311+G(2d,p)
 ****
 34  35 0
 6-311+G(2d,p)
 ****
 1  2  14  15  16  17  18  19  20  21  22  24  25  26 0
 3-21G
 ****
 31  33  36  37  38  39  40  41  42  43  44  45  46 0
 3-21G
 ****


