%nproc=1
%NoSave
%Mem=1900MB
#P OB98/GEN NMR

erre ene a

0 1
  C     -321.818     107.406     -16.531
  O     -320.927     107.874     -17.526
  H     -322.509     106.693     -16.987
  H     -322.391     108.245     -16.129
  H     -321.273     106.905     -15.726
  P     -319.630     108.671     -17.019
  C     -319.052     111.163     -16.577
  O     -320.009     110.231     -17.056
  C     -319.348     112.555     -17.123
  O     -319.227     112.568     -18.561
  C     -320.749     113.070     -16.806
  O     -320.811     113.644     -15.506
  C     -320.910     114.131     -17.880
  O     -320.168     115.314     -17.508
  C     -320.248     113.461     -19.092
  N     -323.676     113.682     -22.825
  C     -322.997     114.702     -22.184
  N     -323.278     115.958     -22.591
  N     -322.124     114.508     -21.229
  C     -321.964     113.201     -20.909
  C     -322.581     112.105     -21.467
  C     -323.530     112.331     -22.532
  O     -324.150     111.463     -23.142
  N     -322.164     110.938     -20.881
  C     -321.310     111.330     -19.956
  N     -321.155     112.694     -19.930
  O     -318.609     108.498     -18.243
  O     -319.037     108.175     -15.744
  H     -320.384     116.004     -18.162
  H     -317.954     107.812     -18.012
  H     -324.344     113.887     -23.548
  H     -320.772     110.670     -19.289
  H     -319.746     114.184     -19.746
  H     -321.947     114.440     -18.018
  H     -323.954     116.179     -23.305
  H     -321.509     112.290     -16.941
  H     -322.789     116.721     -22.135
  H     -318.586     113.239     -16.727
  H     -318.053     110.849     -16.902
  H     -319.083     111.177     -15.481
  P     -322.245     113.747     -14.791
  C     -323.859     115.709     -14.283
  O     -322.829     115.207     -15.117
  O     -321.857     113.839     -13.241
  O     -323.168     112.607     -15.055
  H     -322.132     113.023     -12.781
  H     -324.146     116.684     -14.618
  H     -323.505     115.768     -13.275
  H     -324.704     115.054     -14.326

 6  7  8  9  10  11  12  13  14  15  26  29  33  34 0
 6-311+G(2d,p)
 ****
 36  38  39  40  41 0
 6-311+G(2d,p)
 ****
 1  2  3  4  5  16  17  18  19  20  21  22  23  24  25 0
 3-21G
 ****
 27  28  30  31  32  35  37  42  43  44  45  46  47 0
 3-21G
 ****
 48  49 0
 3-21G
 ****


