%nproc=1
%NoSave
%Mem=1900MB
#P OB98/GEN NMR

erre ene a

0 1
  C       92.877       1.360     217.889
  O       93.679       0.394     218.539
  H       92.229       1.833     218.633
  H       92.253       0.886     217.127
  H       93.508       2.128     217.433
  P       94.686      -0.444     217.612
  C       96.238      -0.920     219.628
  O       95.398      -1.468     218.621
  C       96.008      -1.628     220.963
  O       94.674      -1.379     221.436
  C       96.162      -3.145     220.901
  O       97.527      -3.511     221.009
  C       95.374      -3.563     222.134
  O       96.196      -3.407     223.307
  C       94.221      -2.548     222.162
  N       89.977      -5.349     222.890
  C       91.114      -5.240     223.610
  N       92.222      -4.521     223.330
  C       92.078      -3.853     222.174
  C       90.975      -3.871     221.331
  C       89.886      -4.657     221.733
  N       88.726      -4.768     220.991
  N       91.189      -3.066     220.228
  C       92.375      -2.529     220.435
  N       92.967      -3.001     221.580
  O       95.591       0.362     216.744
  O       93.658      -1.392     216.827
  H       95.632      -3.603     224.075
  H       92.961      -1.712     217.428
  H       91.139      -5.811     224.535
  H       92.838      -1.779     219.803
  H       93.988      -2.229     223.184
  H       95.066      -4.611     222.101
  H       95.683      -3.569     220.009
  H       96.703      -1.198     221.695
  H       96.043       0.152     219.742
  H       88.082      -5.497     221.252
  H       88.715      -4.353     220.068
  H       97.277      -1.050     219.303
  P       98.241      -4.390     219.874
  C      100.534      -3.238     219.710
  O       99.806      -4.343     220.235
  O       97.883      -4.016     218.480
  O       97.844      -5.899     220.233
  H       98.000      -6.481     219.466
  H      101.558      -3.310     220.012
  H      100.116      -2.326     220.082
  H      100.476      -3.248     218.642

 6  7  8  9  10  11  12  13  14  15  25  28  32  33  34  35 0
 6-311+G(2d,p)
 ****
 36  39  40 0
 6-311+G(2d,p)
 ****
 1  2  3  4  5  16  17  18  19  20  21  22  23  24 0
 3-21G
 ****
 26  27  29  30  31  37  38  41  42  43  44  45  46  47 0
 3-21G
 ****
 48 0
 3-21G
 ****


