%nproc=1
%NoSave
%Mem=1900MB
#P OB98/GEN NMR

erre ene a

0 1
  C     -378.014    -188.983    -262.951
  O     -377.865    -188.663    -264.322
  H     -378.942    -189.556    -262.827
  H     -378.078    -188.079    -262.344
  H     -377.179    -189.601    -262.617
  P     -376.721    -187.612    -264.728
  C     -378.646    -186.106    -265.569
  O     -377.455    -186.181    -264.789
  C     -379.021    -184.649    -265.855
  O     -379.319    -183.959    -264.620
  C     -377.905    -183.843    -266.503
  O     -377.621    -184.218    -267.836
  C     -378.320    -182.410    -266.204
  O     -379.231    -181.869    -267.157
  C     -379.031    -182.564    -264.833
  N     -378.240    -182.002    -263.748
  C     -378.619    -180.733    -263.316
  O     -379.539    -180.088    -263.819
  N     -377.867    -180.193    -262.303
  C     -376.772    -180.775    -261.731
  O     -376.116    -180.219    -260.856
  C     -376.401    -182.105    -262.246
  C     -377.143    -182.648    -263.213
  O     -375.941    -187.944    -265.968
  O     -375.819    -187.503    -263.411
  H     -378.766    -181.841    -268.017
  H     -374.941    -187.097    -263.614
  H     -378.132    -179.279    -261.971
  H     -375.537    -182.588    -261.812
  H     -376.890    -183.628    -263.609
  H     -379.997    -182.045    -264.850
  H     -377.451    -181.741    -266.171
  H     -376.987    -184.023    -265.941
  H     -379.931    -184.638    -266.476
  H     -379.449    -186.581    -264.997
  H     -378.507    -186.656    -266.509
  P     -376.256    -183.854    -268.582
  C     -377.365    -182.163    -270.215
  O     -376.397    -182.370    -269.188
  O     -375.642    -184.919    -269.427
  O     -375.267    -183.610    -267.327
  H     -374.375    -183.909    -267.591
  H     -377.348    -181.137    -270.520
  H     -378.338    -182.408    -269.843
  H     -377.136    -182.788    -271.053

 6  7  8  9  10  11  12  13  14  15  16  26  31  32  33  34  35 0
 6-311+G(2d,p)
 ****
 36  37 0
 6-311+G(2d,p)
 ****
 1  2  3  4  5  17  18  19  20  21  22  23  24  25 0
 3-21G
 ****
 27  28  29  30  38  39  40  41  42  43  44  45 0
 3-21G
 ****


