%nproc=1
%NoSave
%Mem=1900MB
#P OB98/GEN NMR

erre ene a

0 1
  C      532.056     443.412    -123.702
  O      530.818     443.936    -124.133
  P      529.790     444.705    -123.177
  C      528.372     442.626    -122.447
  O      529.262     443.670    -122.059
  C      527.211     443.182    -123.276
  O      526.452     442.067    -123.817
  C      526.227     443.993    -122.399
  O      525.750     445.194    -123.005
  C      525.183     442.956    -122.004
  O      523.957     443.518    -121.571
  C      525.120     442.087    -123.257
  N      521.319     439.002    -121.863
  C      521.271     440.339    -122.203
  N      520.106     440.979    -121.956
  N      522.310     441.000    -122.693
  C      523.437     440.258    -122.775
  C      523.602     438.925    -122.470
  C      522.449     438.205    -121.955
  O      522.476     437.040    -121.543
  N      524.901     438.523    -122.600
  C      525.541     439.629    -122.954
  N      524.697     440.713    -123.038
  O      528.795     445.590    -123.846
  O      530.786     445.643    -122.323
  H      523.316     442.798    -121.479
  H      530.305     446.466    -122.130
  H      520.521     438.577    -121.406
  H      526.602     439.705    -123.132
  H      524.439     442.499    -124.002
  H      525.594     442.392    -121.156
  H      519.357     440.532    -121.451
  H      526.739     444.359    -121.488
  H      520.132     442.008    -121.965
  H      527.607     443.764    -124.115
  H      528.003     442.169    -121.519
  H      528.905     441.853    -122.999
  P      525.364     446.572    -122.315
  C      523.080     446.638    -123.488
  O      523.761     446.682    -122.244
  O      525.748     447.694    -123.398
  O      526.051     446.842    -121.018
  H      526.135     448.470    -122.944
  H      522.051     446.984    -123.335
  H      523.045     445.614    -123.856
  H      523.578     447.276    -124.224
  H      532.554     442.948    -124.528
  H      531.888     442.687    -122.933
  H      532.665     444.204    -123.319

 3  4  5  6  7  8  9  10  11  12  23  26  30  31 0
 6-311+G(2d,p)
 ****
 33  35  36  37  38 0
 6-311+G(2d,p)
 ****
 1  2  13  14  15  16  17  18  19  20  21  22  24  25 0
 3-21G
 ****
 27  28  29  32  34  39  40  41  42  43  44  45  46  47  48  49 0
 3-21G
 ****


