%nproc=1
%NoSave
%Mem=1900MB
#P OB98/GEN NMR

erre ene a

0 1
  C       19.524     336.943    -381.000
  O       19.726     335.834    -380.127
  P       18.497     335.302    -379.243
  C       18.801     335.954    -376.776
  O       18.246     336.331    -378.035
  C       18.274     336.841    -375.627
  O       16.840     336.666    -375.450
  C       18.933     336.553    -374.271
  O       19.037     337.809    -373.577
  C       17.912     335.655    -373.587
  O       18.092     335.592    -372.182
  C       16.614     336.307    -374.071
  N       15.461     335.430    -373.921
  C       14.673     335.596    -372.785
  O       15.028     336.393    -371.905
  N       13.532     334.851    -372.660
  C       13.280     333.910    -373.518
  N       12.132     333.198    -373.371
  C       14.191     333.577    -374.635
  C       15.235     334.387    -374.792
  O       18.563     333.868    -378.846
  O       17.226     335.578    -380.200
  H       18.973     335.205    -371.995
  H       16.570     334.865    -380.059
  H       13.986     332.737    -375.281
  H       15.949     334.235    -375.586
  H       16.417     337.238    -373.525
  H       18.002     334.633    -373.982
  H       19.937     336.108    -374.348
  H       18.447     337.884    -375.896
  H       11.530     333.416    -372.583
  H       19.884     336.040    -376.823
  H       11.841     332.488    -374.027
  H       18.584     334.899    -376.587
  P       20.500     338.371    -373.217
  C       20.547     337.733    -370.697
  O       21.077     337.513    -371.992
  O       20.147     339.765    -372.513
  O       21.423     338.597    -374.372
  H       20.910     340.371    -372.605
  H       20.835     336.894    -370.052
  H       19.459     337.804    -370.716
  H       20.961     338.660    -370.275
  H       20.438     337.166    -381.510
  H       19.217     337.795    -380.430
  H       18.766     336.701    -381.715

 3  4  5  6  7  8  9  10  11  12  13  23  27  28  29  30  32 0
 6-311+G(2d,p)
 ****
 34  35 0
 6-311+G(2d,p)
 ****
 1  2  14  15  16  17  18  19  20  21  22  24  25  26 0
 3-21G
 ****
 31  33  36  37  38  39  40  41  42  43  44  45  46 0
 3-21G
 ****


