%nproc=1
%NoSave
%Mem=1900MB
#P OB98/GEN NMR

erre ene a

0 1
  C      -28.755    -548.353     -95.423
  O      -27.514    -548.446     -96.091
  H      -28.748    -549.041     -94.571
  H      -29.568    -548.638     -96.099
  H      -28.913    -547.338     -95.054
  P      -27.319    -547.494     -97.369
  C      -28.086    -545.007     -97.478
  O      -27.315    -545.990     -96.808
  C      -27.480    -543.613     -97.258
  O      -27.447    -543.338     -95.825
  C      -26.033    -543.475     -97.767
  O      -25.824    -542.102     -98.133
  C      -25.232    -543.796     -96.511
  O      -23.886    -543.414     -96.658
  C      -26.075    -543.049     -95.478
  N      -25.984    -541.461     -90.615
  C      -26.372    -540.846     -91.755
  N      -26.376    -541.338     -93.010
  C      -25.951    -542.615     -93.029
  C      -25.536    -543.376     -91.947
  C      -25.558    -542.746     -90.687
  N      -25.162    -543.367     -89.523
  N      -25.164    -544.646     -92.357
  C      -25.355    -544.646     -93.665
  N      -25.817    -543.438     -94.111
  O      -28.720    -547.614     -98.133
  O      -26.167    -547.838     -98.257
  H      -23.805    -542.443     -96.762
  H      -28.662    -548.292     -98.832
  H      -26.712    -539.821     -91.644
  H      -25.165    -545.482     -94.324
  H      -25.937    -541.965     -95.546
  H      -25.239    -544.872     -96.311
  H      -25.810    -544.119     -98.620
  H      -28.138    -542.862     -97.711
  H      -29.109    -545.033     -97.085
  H      -28.111    -545.226     -98.551
  H      -25.192    -542.844     -88.667
  H      -24.823    -544.319     -89.569
  P      -26.646    -541.485     -99.369
  C      -29.199    -540.911     -99.536
  O      -27.983    -540.802     -98.804
  O      -27.225    -542.805    -100.075
  O      -25.851    -540.673    -100.338
  H      -27.354    -542.637    -101.028
  H      -29.978    -540.399     -99.011
  H      -29.460    -541.943     -99.643
  H      -29.073    -540.473    -100.504

 6  7  8  9  10  11  12  13  14  15  25  28  32  33  34  35 0
 6-311+G(2d,p)
 ****
 36  37  40 0
 6-311+G(2d,p)
 ****
 1  2  3  4  5  16  17  18  19  20  21  22  23  24 0
 3-21G
 ****
 26  27  29  30  31  38  39 41  42  43  44  45  46  47  48 0
 3-21G
 ****


