%nproc=1
%NoSave
%Mem=1900MB
#P OB98/GEN NMR

erre ene a

0 1
  C      -50.484     -88.129     -41.205
  O      -50.360     -88.353     -42.599
  P      -51.556     -89.000     -43.456
  C      -51.892     -86.783     -44.745
  O      -52.473     -87.763     -43.903
  C      -52.757     -86.571     -45.989
  O      -54.124     -86.323     -45.567
  C      -52.323     -85.391     -46.868
  O      -52.582     -85.756     -48.228
  C      -53.254     -84.279     -46.425
  O      -53.388     -83.256     -47.401
  C      -54.537     -85.070     -46.149
  N      -55.455     -84.359     -45.266
  C      -56.338     -83.447     -45.845
  O      -56.323     -83.235     -47.057
  N      -57.227     -82.787     -45.034
  C      -57.180     -82.957     -43.749
  N      -58.121     -82.327     -42.995
  C      -56.191     -83.829     -43.087
  C      -55.386     -84.506     -43.899
  O      -52.287     -90.104     -42.775
  O      -50.870     -89.420     -44.835
  H      -54.089     -82.643     -47.109
  H      -50.444     -90.312     -44.797
  H      -56.174     -83.916     -42.009
  H      -54.646     -85.187     -43.504
  H      -55.043     -85.311     -47.090
  H      -52.867     -83.822     -45.509
  H      -51.263     -85.148     -46.755
  H      -52.759     -87.501     -46.571
  H      -58.882     -81.882     -43.495
  H      -50.906     -87.137     -45.058
  H      -58.350     -82.657     -42.064
  H      -51.765     -85.847     -44.190
  P      -51.660     -85.116     -49.377
  C      -50.319     -87.333     -49.514
  O      -50.279     -85.926     -49.412
  O      -51.216     -83.729     -48.699
  O      -52.321     -84.850     -50.689
  H      -51.004     -83.086     -49.401
  H      -49.293     -87.711     -49.531
  H      -50.816     -87.637     -50.438
  H      -50.837     -87.765     -48.654
  H      -49.580     -87.694     -40.832
  H      -50.663     -89.060     -40.709
  H      -51.302     -87.464     -41.022

 3  4  5  6  7  8  9  10  11  12  13  23  27  28  29  30  32 0
 6-311+G(2d,p)
 ****
 34  35 0
 6-311+G(2d,p)
 ****
 1  2  14  15  16  17  18  19  20  21  22  24  25  26 0
 3-21G
 ****
 31  33  36  37  38  39  40  41  42  43  44  45  46 0
 3-21G
 ****


