%nproc=1
%NoSave
%Mem=1900MB
#P OB98/GEN NMR

erre ene a

0 1
  C     -384.198    -325.349     195.411
  O     -385.270    -325.580     196.305
  H     -384.384    -325.904     194.485
  H     -383.253    -325.700     195.836
  H     -384.123    -324.285     195.178
  P     -385.157    -325.006     197.796
  C     -384.911    -327.518     198.378
  O     -384.498    -326.185     198.662
  C     -383.694    -328.430     198.260
  O     -382.876    -328.034     197.138
  C     -382.778    -328.378     199.479
  O     -383.334    -329.101     200.554
  C     -381.494    -328.936     198.899
  O     -381.534    -330.366     198.831
  C     -381.502    -328.314     197.479
  N     -380.682    -327.111     197.387
  C     -379.338    -327.306     197.045
  O     -378.909    -328.443     196.834
  N     -378.518    -326.206     196.977
  C     -378.989    -325.023     197.210
  N     -378.125    -323.982     197.123
  C     -380.402    -324.773     197.554
  C     -381.180    -325.849     197.633
  O     -386.396    -324.422     198.391
  O     -383.973    -323.930     197.695
  H     -380.869    -330.621     198.163
  H     -384.329    -323.052     197.463
  H     -380.755    -323.769     197.738
  H     -382.233    -325.754     197.886
  H     -381.134    -329.040     196.744
  H     -380.634    -328.657     199.500
  H     -382.599    -327.333     199.764
  H     -384.044    -329.455     198.078
  H     -377.159    -324.200     196.887
  H     -385.460    -327.494     197.425
  H     -378.396    -323.011     197.194
  H     -385.586    -327.890     199.155
  P     -383.816    -328.345     201.888
  C     -382.286    -329.805     203.364
  O     -382.595    -328.483     202.923
  O     -385.153    -328.765     202.406
  O     -383.758    -326.797     201.469
  H     -384.504    -326.557     200.868
  H     -381.461    -329.770     204.045
  H     -382.027    -330.411     202.521
  H     -383.138    -330.225     203.857

 6  7  8  9  10  11  12  13  14  15  16  26  30  31  32  33  35 0
 6-311+G(2d,p)
 ****
 37  38 0
 6-311+G(2d,p)
 ****
 1  2  3  4  5  17  18  19  20  21  22  23  24  25 0
 3-21G
 ****
 27  28  29  34  36  39  40  41  42  43  44  45  46 0
 3-21G
 ****


