%nproc=1
%NoSave
%Mem=1900MB
#P OB98/GEN NMR

erre ene a

0 1
  C      434.529     855.212      40.157
  O      435.596     856.024      39.716
  H      433.814     855.835      40.704
  H      434.908     854.433      40.830
  H      434.019     854.750      39.306
  P      436.667     855.343      38.736
  C      438.263     857.249      39.583
  O      437.811     856.446      38.510
  C      439.014     858.482      39.069
  O      440.108     858.033      38.223
  C      438.151     859.428      38.239
  O      438.573     860.771      38.496
  C      438.485     859.056      36.802
  O      438.215     860.124      35.893
  C      439.972     858.679      36.938
  N      440.426     857.817      35.851
  C      440.631     858.429      34.605
  O      440.416     859.629      34.464
  N      441.025     857.650      33.541
  C      441.154     856.367      33.691
  N      441.519     855.648      32.598
  C      440.894     855.674      34.976
  C      440.548     856.452      35.988
  O      435.881     855.328      37.342
  O      437.153     854.004      39.188
  H      438.414     859.820      34.986
  H      435.420     856.163      37.151
  H      440.998     854.595      35.047
  H      440.351     856.031      36.981
  H      440.602     859.584      36.945
  H      437.900     858.192      36.486
  H      437.081     859.342      38.462
  H      439.464     858.995      39.921
  H      441.662     856.167      31.735
  H      438.920     856.673      40.249
  H      441.590     854.644      32.578
  H      437.383     857.563      40.169
  P      437.475     861.927      38.693
  C      438.000     864.314      37.813
  O      438.228     863.343      38.843
  O      436.427     861.653      39.718
  O      436.825     862.036      37.229
  H      435.862     862.161      37.341
  H      438.554     865.203      38.032
  H      436.957     864.547      37.767
  H      438.319     863.917      36.872

 6  7  8  9  10  11  12  13  14  15  16  26  30  31  32  33  35 0
 6-311+G(2d,p)
 ****
 37  38 0
 6-311+G(2d,p)
 ****
 1  2  3  4  5  17  18  19  20  21  22  23  24  25 0
 3-21G
 ****
 27  28  29  34  36  39  40  41  42  43  44  45  46 0
 3-21G
 ****


