%nproc=1
%NoSave
%Mem=1900MB
#P OB98/GEN NMR

erre ene a

0 1
  C      566.393    -395.131     171.478
  O      567.597    -394.445     171.736
  H      565.585    -394.401     171.402
  H      566.172    -395.815     172.302
  H      566.449    -395.692     170.541
  P      568.984    -395.221     171.543
  C      569.841    -393.582     169.741
  O      569.489    -394.922     170.050
  C      569.635    -393.284     168.254
  O      570.263    -394.320     167.460
  C      568.142    -393.303     167.907
  O      567.835    -392.449     166.810
  C      567.911    -394.750     167.491
  O      566.757    -394.915     166.673
  C      569.227    -395.065     166.785
  N      570.195    -399.210     163.988
  C      569.757    -397.961     163.586
  N      569.527    -397.808     162.257
  N      569.552    -396.967     164.403
  C      569.751    -397.287     165.702
  C      570.159    -398.491     166.231
  C      570.423    -399.577     165.309
  O      570.791    -400.706     165.613
  N      570.231    -398.442     167.601
  C      569.860    -397.215     167.904
  N      569.571    -396.470     166.784
  O      568.551    -396.761     171.461
  O      570.009    -394.998     172.615
  H      566.509    -395.861     166.704
  H      569.287    -397.337     171.729
  H      570.353    -399.939     163.313
  H      569.790    -396.815     168.907
  H      569.199    -394.729     165.741
  H      567.759    -395.347     168.398
  H      569.502    -398.593     161.624
  H      567.520    -393.028     168.759
  H      568.938    -397.017     161.989
  H      570.117    -392.338     167.985
  H      570.897    -393.460     170.002
  H      569.268    -392.888     170.360
  P      567.065    -391.080     167.129
  C      568.159    -389.682     165.202
  O      567.968    -389.874     166.588
  O      567.158    -390.957     168.724
  O      565.653    -391.057     166.647
  H      566.295    -391.170     169.127
  H      568.788    -388.831     165.043
  H      567.212    -389.519     164.731
  H      568.621    -390.551     164.782

 6  7  8  9  10  11  12  13  14  15  26  29  33  34 0
 6-311+G(2d,p)
 ****
 36  38  39  40  41 0
 6-311+G(2d,p)
 ****
 1  2  3  4  5  16  17  18  19  20  21  22  23  24  25 0
 3-21G
 ****
 27  28  30  31  32  35  37  42  43  44  45  46  47 0
 3-21G
 ****
 48  49 0
 3-21G
 ****


