%nproc=1
%NoSave
%Mem=1900MB
#P OB98/GEN NMR

erre ene a

0 1
  C      385.016    -252.963     530.945
  O      385.140    -251.878     531.843
  H      384.825    -252.570     529.942
  H      384.173    -253.595     531.237
  H      385.937    -253.553     530.924
  P      385.511    -252.238     533.363
  C      383.051    -252.591     534.109
  O      384.234    -251.820     534.250
  C      381.839    -251.819     534.626
  O      381.979    -251.631     536.068
  C      381.658    -250.430     533.996
  O      380.254    -250.172     533.882
  C      382.221    -249.498     535.063
  O      381.735    -248.164     534.942
  C      381.766    -250.229     536.327
  N      381.310    -247.638     540.615
  C      380.370    -247.950     539.654
  N      379.111    -247.509     539.863
  N      380.636    -248.643     538.577
  C      381.932    -249.051     538.513
  C      382.954    -248.804     539.393
  C      382.647    -248.021     540.570
  O      383.445    -247.690     541.445
  N      384.127    -249.371     538.959
  C      383.810    -249.957     537.816
  N      382.489    -249.791     537.505
  O      386.605    -251.126     533.726
  O      386.022    -253.621     533.587
  H      380.838    -248.134     535.334
  H      387.501    -251.470     533.565
  H      381.054    -247.092     541.423
  H      384.498    -250.505     537.183
  H      380.699    -250.079     536.534
  H      383.319    -249.471     535.001
  H      378.818    -247.010     540.690
  H      382.140    -250.305     533.023
  H      378.396    -247.765     539.189
  H      380.944    -252.435     534.479
  H      383.160    -253.516     534.683
  H      382.911    -252.842     533.052
  P      379.500    -250.692     532.571
  C      380.529    -248.860     531.036
  O      379.352    -249.462     531.556
  O      377.996    -250.911     533.085
  O      380.074    -251.948     531.991
  H      377.563    -251.607     532.557
  H      380.260    -248.060     530.379
  H      381.094    -249.590     530.496
  H      381.119    -248.477     531.842

 6  7  8  9  10  11  12  13  14  15  26  29  33  34 0
 6-311+G(2d,p)
 ****
 36  38  39  40  41 0
 6-311+G(2d,p)
 ****
 1  2  3  4  5  16  17  18  19  20  21  22  23  24  25 0
 3-21G
 ****
 27  28  30  31  32  35  37  42  43  44  45  46  47 0
 3-21G
 ****
 48  49 0
 3-21G
 ****


