%nproc=1
%NoSave
%Mem=1900MB
#P OB98/GEN NMR

erre ene a

0 1
  C      -13.959     -87.199     149.068
  O      -12.821     -87.965     149.414
  H      -14.088     -87.184     147.982
  H      -14.840     -87.657     149.521
  H      -13.858     -86.177     149.446
  P      -11.408     -87.435     148.866
  C      -11.619     -88.867     146.712
  O      -11.470     -87.569     147.268
  C      -10.260     -89.551     146.600
  O      -10.401     -90.839     145.967
  C       -9.233     -88.792     145.766
  O       -8.628     -87.739     146.502
  C       -8.238     -89.903     145.463
  O       -7.389     -90.120     146.606
  C       -9.163     -91.114     145.258
  N       -7.592     -93.468     140.996
  C       -7.102     -93.460     142.254
  N       -7.588     -92.826     143.342
  C       -8.711     -92.157     143.036
  C       -9.345     -92.089     141.806
  C       -8.736     -92.781     140.747
  N       -9.210     -92.726     139.445
  N      -10.470     -91.290     141.878
  C      -10.503     -90.871     143.126
  N       -9.467     -91.372     143.865
  O      -10.397     -88.599     149.309
  O      -10.982     -86.104     149.387
  H       -6.809     -90.873     146.386
  H       -9.960     -88.343     150.142
  H       -6.195     -94.037     142.410
  H      -11.251     -90.204     143.534
  H       -8.743     -92.031     145.686
  H       -7.587     -89.678     144.613
  H       -9.664     -88.433     144.826
  H       -9.883     -89.723     147.619
  H      -12.067     -88.790     145.716
  H       -8.484     -92.842     138.743
  H       -9.892     -91.996     139.279
  H      -12.285     -89.450     147.357
  P       -8.502     -86.306     145.790
  C       -5.916     -86.219     145.795
  O       -7.097     -86.308     145.010
  O       -8.252     -85.318     147.022
  O       -9.686     -85.888     144.990
  H       -8.930     -84.614     147.022
  H       -5.060     -86.231     145.154
  H       -5.870     -87.051     146.466
  H       -5.929     -85.308     146.356

 6  7  8  9  10  11  12  13  14  15  25  28  32  33  34  35 0
 6-311+G(2d,p)
 ****
 36  39  40 0
 6-311+G(2d,p)
 ****
 1  2  3  4  5  16  17  18  19  20  21  22  23  24 0
 3-21G
 ****
 26  27  29  30  31  37  38  41  42  43  44  45  46  47  48 0
 3-21G
 ****


