%nproc=1
%NoSave
%Mem=1900MB
#P OB98/GEN NMR

erre ene a

0 1
  C      285.042     -41.311     -35.126
  O      286.257     -41.756     -34.552
  H      285.061     -41.523     -36.199
  H      284.930     -40.231     -34.983
  H      284.196     -41.838     -34.676
  P      286.447     -41.475     -32.983
  C      288.226     -39.661     -33.518
  O      287.005     -39.973     -32.859
  C      289.137     -38.852     -32.601
  O      288.615     -37.520     -32.405
  C      289.331     -39.457     -31.214
  O      290.344     -40.449     -31.229
  C      289.725     -38.226     -30.406
  O      291.121     -37.904     -30.605
  C      288.826     -37.139     -31.016
  N      286.235     -34.226     -27.808
  C      287.553     -34.157     -28.206
  N      288.307     -33.181     -27.648
  N      288.097     -34.976     -29.069
  C      287.243     -35.935     -29.502
  C      285.916     -36.112     -29.178
  C      285.317     -35.163     -28.266
  O      284.132     -35.121     -27.938
  N      285.383     -37.191     -29.842
  C      286.391     -37.683     -30.530
  N      287.545     -36.958     -30.355
  O      287.717     -42.372     -32.594
  O      285.271     -41.804     -32.126
  H      291.663     -38.655     -30.306
  H      287.575     -42.748     -31.705
  H      285.864     -33.550     -27.166
  H      286.343     -38.552     -31.180
  H      289.316     -36.162     -31.022
  H      289.596     -38.388     -29.335
  H      288.039     -32.728     -26.789
  H      288.386     -39.858     -30.822
  H      289.292     -33.181     -27.886
  H      290.103     -38.742     -33.109
  H      288.002     -39.077     -34.417
  H      288.722     -40.592     -33.808
  P      290.337     -41.560     -30.074
  C      292.190     -40.217     -28.839
  O      290.942     -40.892     -28.744
  O      291.484     -42.571     -30.542
  O      289.034     -42.271     -29.899
  H      291.085     -43.385     -30.896
  H      292.459     -39.829     -27.879
  H      292.108     -39.412     -29.539
  H      292.942     -40.902     -29.170

 6  7  8  9  10  11  12  13  14  15  26  29  33  34 0
 6-311+G(2d,p)
 ****
 36  38  39  40  41 0
 6-311+G(2d,p)
 ****
 1  2  3  4  5  16  17  18  19  20  21  22  23  24  25 0
 3-21G
 ****
 27  28  30  31  32  35  37  42  43  44  45  46  47 0
 3-21G
 ****
 48  49 0
 3-21G
 ****


