%nproc=1
%NoSave
%Mem=1900MB
#P OB98/GEN NMR

erre ene a

0 1
  C      210.835    -896.540    -182.068
  O      211.897    -897.470    -181.937
  P      212.932    -897.250    -180.725
  C      214.808    -896.260    -182.284
  O      214.397    -897.290    -181.385
  C      216.287    -895.940    -182.074
  O      216.491    -895.350    -180.758
  C      217.204    -897.160    -182.111
  O      217.446    -897.610    -183.436
  C      218.443    -896.620    -181.389
  O      219.247    -895.830    -182.288
  C      217.823    -895.730    -180.304
  N      217.759    -896.360    -178.985
  C      218.965    -896.840    -178.471
  O      220.035    -896.730    -179.090
  N      218.898    -897.460    -177.260
  C      217.755    -897.700    -176.546
  O      217.751    -898.300    -175.473
  C      216.507    -897.210    -177.158
  C      216.557    -896.570    -178.333
  O      212.798    -898.660    -179.968
  O      212.621    -896.050    -179.884
  H      212.526    -899.380    -180.576
  H      219.585    -896.450    -182.983
  H      219.762    -897.780    -176.857
  H      215.584    -897.400    -176.616
  H      215.646    -896.210    -178.789
  H      218.374    -894.800    -180.216
  H      219.085    -897.420    -181.000
  H      216.780    -897.980    -181.528
  H      216.595    -895.210    -182.823
  H      214.224    -895.370    -182.087
  H      214.631    -896.580    -183.318
  P      217.407    -899.200    -183.699
  C      219.763    -899.020    -184.834
  O      218.421    -899.470    -184.918
  O      215.954    -899.370    -184.357
  O      217.650    -900.000    -182.462
  H      215.749    -898.690    -184.986
  H      220.354    -899.590    -185.560
  H      220.177    -899.170    -183.848
  H      219.809    -897.950    -185.101
  H      210.230    -896.806    -182.909
  H      211.236    -895.559    -182.213
  H      210.238    -896.553    -181.180

 3  4  5  6  7  8  9  10  11  12  13  24  28  29  30  31  32 0
 6-311+G(2d,p)
 ****
 33  34 0
 6-311+G(2d,p)
 ****
 1  2  14  15  16  17  18  19  20  21  22  23  25  26  27 0
 3-21G
 ****
 35  36  37  38  39  40  41  42  43  44  45 0
 3-21G
 ****


