%nproc=1
%NoSave
%Mem=1900MB
#P OB98/GEN NMR

erre ene a

0 1
  C     -179.412     335.063     547.845
  O     -180.501     334.618     548.629
  H     -179.757     335.884     547.206
  H     -179.035     334.260     547.208
  H     -178.612     335.436     548.490
  P     -180.311     333.310     549.540
  C     -182.110     331.968     548.270
  O     -180.731     332.055     548.632
  C     -182.293     331.049     547.062
  O     -183.717     330.898     546.807
  C     -181.636     331.581     545.781
  O     -181.102     330.471     545.051
  C     -182.801     332.195     545.033
  O     -182.553     332.266     543.645
  C     -183.967     331.278     545.441
  N     -185.253     331.958     545.294
  C     -186.137     331.418     544.350
  O     -185.824     330.406     543.719
  N     -187.327     332.055     544.106
  C     -187.587     333.175     544.705
  N     -188.763     333.781     544.387
  C     -186.667     333.805     545.680
  C     -185.527     333.150     545.921
  O     -180.952     333.348     550.890
  O     -178.719     333.159     549.651
  H     -183.399     332.418     543.170
  H     -178.393     333.637     550.433
  H     -186.928     334.747     546.147
  H     -184.796     333.540     546.618
  H     -183.975     330.365     544.831
  H     -182.980     333.212     545.400
  H     -180.844     332.315     545.975
  H     -181.908     330.056     547.319
  H     -189.346     333.330     543.697
  H     -182.457     332.978     548.022
  H     -189.054     334.683     544.758
  H     -182.688     331.592     549.119
  P     -179.526     330.185     545.039
  C     -178.914     331.991     543.334
  O     -178.744     331.542     544.679
  O     -179.108     328.992     544.234
  O     -179.163     329.959     546.593
  H     -178.410     329.345     546.663
  H     -178.361     332.895     543.187
  H     -179.952     332.174     543.147
  H     -178.557     331.241     542.660

 6  7  8  9  10  11  12  13  14  15  16  26  30  31  32  33  35 0
 6-311+G(2d,p)
 ****
 37  38 0
 6-311+G(2d,p)
 ****
 1  2  3  4  5  17  18  19  20  21  22  23  24  25 0
 3-21G
 ****
 27  28  29  34  36  39  40  41  42  43  44  45  46 0
 3-21G
 ****


