%nproc=1
%NoSave
%Mem=1900MB
#P OB98/GEN NMR

erre ene a

0 1
  C      -61.468     -56.571    -328.082
  O      -60.528     -57.586    -327.796
  H      -61.404     -56.320    -329.144
  H      -61.237     -55.676    -327.496
  H      -62.486     -56.909    -327.858
  P      -60.600     -58.243    -326.334
  C      -58.310     -57.035    -326.115
  O      -59.470     -57.516    -325.452
  C      -57.945     -55.646    -325.598
  O      -59.100     -54.776    -325.640
  C      -57.450     -55.625    -324.155
  O      -56.067     -55.955    -324.069
  C      -57.686     -54.165    -323.799
  O      -56.654     -53.346    -324.386
  C      -59.034     -53.892    -324.485
  N      -64.077     -53.510    -324.104
  C      -63.233     -53.142    -325.133
  N      -63.816     -52.581    -326.219
  N      -61.934     -53.298    -325.108
  C      -61.490     -53.861    -323.958
  C      -62.225     -54.274    -322.868
  C      -63.658     -54.098    -322.913
  O      -64.452     -54.428    -322.035
  N      -61.421     -54.807    -321.893
  C      -60.203     -54.702    -322.384
  N      -60.188     -54.129    -323.633
  O      -60.002     -59.715    -326.560
  O      -61.959     -58.301    -325.723
  H      -56.849     -53.288    -325.341
  H      -60.477     -60.340    -325.980
  H      -65.065     -53.356    -324.170
  H      -59.303     -55.025    -321.881
  H      -59.115     -52.864    -324.852
  H      -57.666     -53.985    -322.726
  H      -64.802     -52.383    -326.279
  H      -58.062     -56.263    -323.509
  H      -63.223     -52.335    -326.999
  H      -57.191     -55.221    -326.274
  H      -58.507     -56.983    -327.191
  H      -57.483     -57.735    -325.938
  P      -55.657     -57.190    -323.126
  C      -54.155     -55.642    -321.681
  O      -55.257     -56.542    -321.712
  O      -54.250     -57.655    -323.732
  O      -56.646     -58.306    -323.083
  H      -54.075     -58.588    -323.501
  H      -54.007     -55.293    -320.680
  H      -54.356     -54.810    -322.323
  H      -53.273     -56.146    -322.017

 6  7  8  9  10  11  12  13  14  15  26  29  33  34 0
 6-311+G(2d,p)
 ****
 36  38  39  40  41 0
 6-311+G(2d,p)
 ****
 1  2  3  4  5  16  17  18  19  20  21  22  23  24  25 0
 3-21G
 ****
 27  28  30  31  32  35  37  42  43  44  45  46  47 0
 3-21G
 ****
 48  49 0
 3-21G
 ****


