%nproc=1
%NoSave
%Mem=1900MB
#P OB98/GEN NMR

erre ene a

0 1
  C     -168.992      63.408     316.570
  O     -169.611      64.671     316.730
  H     -168.900      63.194     315.501
  H     -169.593      62.618     317.030
  H     -167.994      63.416     317.014
  P     -169.999      65.142     318.211
  C     -171.512      64.080     320.021
  O     -171.260      64.249     318.630
  C     -172.844      63.366     320.229
  O     -172.781      62.027     319.698
  C     -173.221      63.215     321.695
  O     -173.691      64.438     322.225
  C     -174.245      62.100     321.613
  O     -175.525      62.596     321.201
  C     -173.627      61.193     320.525
  N     -172.874      60.074     321.083
  C     -173.627      58.966     321.482
  O     -174.851      58.964     321.352
  N     -172.971      57.897     322.042
  C     -171.683      57.923     322.172
  N     -171.095      56.833     322.733
  C     -170.850      59.066     321.752
  C     -171.504      60.098     321.224
  O     -170.185      66.613     318.425
  O     -168.818      64.548     319.115
  H     -176.104      61.812     321.133
  H     -168.087      65.190     319.186
  H     -169.778      59.042     321.875
  H     -170.968      60.979     320.886
  H     -174.409      60.788     319.871
  H     -174.375      61.606     322.575
  H     -172.363      62.848     322.268
  H     -173.619      63.912     319.675
  H     -171.707      56.075     323.017
  H     -171.544      65.079     320.467
  H     -170.098      56.705     322.805
  H     -170.702      63.514     320.494
  P     -173.622      64.726     323.801
  C     -174.540      63.542     325.901
  O     -174.566      63.615     324.478
  O     -173.897      66.134     324.206
  O     -172.150      64.227     324.194
  H     -171.460      64.864     323.886
  H     -175.204      62.771     326.231
  H     -174.850      64.480     326.312
  H     -173.546      63.321     326.229

 6  7  8  9  10  11  12  13  14  15  16  26  30  31  32  33  35 0
 6-311+G(2d,p)
 ****
 37  38 0
 6-311+G(2d,p)
 ****
 1  2  3  4  5  17  18  19  20  21  22  23  24  25 0
 3-21G
 ****
 27  28  29  34  36  39  40  41  42  43  44  45  46 0
 3-21G
 ****


