%nproc=1
%NoSave
%Mem=1900MB
#P OB98/GEN NMR

erre ene a

0 1
  C      -47.590       5.422       2.681
  O      -46.598       6.116       3.419
  P      -46.873       6.600       4.925
  C      -44.403       6.287       5.617
  O      -45.749       5.872       5.806
  C      -43.459       5.320       6.324
  O      -43.642       3.992       5.795
  C      -41.979       5.636       6.145
  O      -41.587       6.724       6.967
  C      -41.352       4.292       6.491
  O      -41.289       4.121       7.916
  C      -42.373       3.302       5.891
  N      -41.960       2.777       4.595
  C      -41.017       1.745       4.612
  O      -40.577       1.305       5.673
  N      -40.616       1.202       3.417
  C      -41.093       1.663       2.302
  N      -40.711       1.041       1.154
  C      -42.045       2.786       2.237
  C      -42.435       3.286       3.408
  O      -48.270       6.394       5.403
  O      -46.399       8.124       4.949
  H      -41.088       3.179       8.078
  H      -47.110       8.763       4.695
  H      -42.404       3.145       1.283
  H      -43.147       4.100       3.446
  H      -42.535       2.463       6.577
  H      -40.340       4.166       6.093
  H      -41.766       5.883       5.098
  H      -43.719       5.303       7.391
  H      -40.201       0.171       1.257
  H      -44.282       7.286       6.049
  H      -41.242       1.142       0.297
  H      -44.188       6.338       4.546
  P      -40.308       7.576       6.508
  C      -41.230       9.994       6.337
  O      -40.885       8.805       5.650
  O      -39.605       6.630       5.428
  O      -39.386       7.950       7.619
  H      -38.840       6.172       5.825
  H      -41.372      10.790       5.602
  H      -40.433      10.289       7.026
  H      -42.164       9.850       6.885
  H      -47.213       5.190       1.707
  H      -48.461       6.036       2.589
  H      -47.845       4.516       3.190

 3  4  5  6  7  8  9  10  11  12  13  23  27  28  29  30  32 0
 6-311+G(2d,p)
 ****
 34  35 0
 6-311+G(2d,p)
 ****
 1  2  14  15  16  17  18  19  20  21  22  24  25  26 0
 3-21G
 ****
 31  33  36  37  38  39  40  41  42  43  44  45  46 0
 3-21G
 ****


