%nproc=1
%NoSave
%Mem=1900MB
#P OB98/GEN NMR

erre ene a

0 1
  C      122.516     -74.213     222.919
  O      122.393     -74.209     221.510
  H      121.713     -73.617     223.358
  H      122.423     -75.242     223.276
  H      123.487     -73.818     223.227
  P      122.792     -72.857     220.744
  C      121.082     -73.213     218.824
  O      122.448     -73.099     219.191
  C      120.956     -73.716     217.387
  O      121.398     -72.662     216.486
  C      121.786     -74.973     217.082
  O      121.029     -75.819     216.212
  C      122.979     -74.424     216.320
  O      123.576     -75.389     215.461
  C      122.347     -73.251     215.579
  N      125.904     -72.290     212.075
  C      124.870     -73.157     212.097
  N      123.932     -73.311     213.052
  C      124.096     -72.408     214.033
  C      125.098     -71.457     214.145
  C      126.049     -71.429     213.111
  N      127.143     -70.596     213.113
  N      124.960     -70.753     215.327
  C      123.914     -71.283     215.924
  N      123.359     -72.288     215.180
  O      124.393     -72.901     220.785
  O      122.251     -71.599     221.334
  H      124.226     -75.909     215.975
  H      124.710     -72.488     221.609
  H      124.790     -73.821     211.238
  H      123.535     -71.004     216.898
  H      121.813     -73.562     214.673
  H      123.740     -74.079     217.030
  H      122.085     -75.533     217.975
  H      119.895     -73.895     217.173
  H      120.610     -72.227     218.897
  H      127.829     -70.720     212.382
  H      127.324     -70.030     213.926
  H      120.576     -73.896     219.513
  P      120.397     -77.152     216.843
  C      120.806     -78.864     214.923
  O      119.866     -78.078     215.649
  O      119.053     -76.629     217.533
  O      121.292     -77.838     217.826
  H      118.856     -77.155     218.331
  H      120.295     -79.421     214.165
  H      121.298     -79.539     215.591
  H      121.531     -78.222     214.467

 6  7  8  9  10  11  12  13  14  15  25  28  32  33  34  35 0
 6-311+G(2d,p)
 ****
 36  39  40 0
 6-311+G(2d,p)
 ****
 1  2  3  4  5  16  17  18  19  20  21  22  23  24 0
 3-21G
 ****
 26  27  29  30  31  37  38  41  42  43  44  45  46  47 0
 3-21G
 ****
 48 0
 3-21G
 ****


