%nproc=1
%NoSave
%Mem=1900MB
#P OB98/GEN NMR

erre ene a

0 1
  C      423.856     499.287     -22.695
  O      423.011     499.438     -23.814
  H      424.360     500.232     -22.501
  H      424.613     498.523     -22.913
  H      423.281     498.996     -21.808
  P      421.884     498.320     -24.050
  C      423.507     496.974     -25.558
  O      422.655     496.957     -24.426
  C      423.496     495.602     -26.253
  O      424.311     494.686     -25.472
  C      422.093     494.986     -26.387
  O      422.010     494.275     -27.629
  C      422.073     493.952     -25.257
  O      421.127     492.914     -25.489
  C      423.529     493.488     -25.270
  N      424.915     489.036     -23.413
  C      424.810     489.475     -24.719
  N      425.077     488.565     -25.693
  N      424.496     490.701     -25.052
  C      424.279     491.506     -23.978
  C      424.327     491.194     -22.645
  C      424.674     489.830     -22.298
  O      424.743     489.375     -21.146
  N      423.985     492.275     -21.876
  C      423.705     493.224     -22.736
  N      423.872     492.807     -24.039
  O      421.222     498.771     -25.432
  O      420.867     498.196     -22.959
  H      421.290     492.539     -26.381
  H      420.432     499.321     -25.261
  H      425.151     488.073     -23.218
  H      423.356     494.223     -22.489
  H      423.741     492.795     -26.098
  H      421.815     494.448     -24.303
  H      425.366     487.621     -25.527
  H      421.274     495.701     -26.321
  H      425.060     488.889     -26.646
  H      423.968     495.705     -27.235
  H      424.530     497.201     -25.245
  H      423.178     497.749     -26.255
  P      421.306     495.003     -28.868
  C      418.829     494.311     -28.453
  O      419.798     495.355     -28.454
  O      421.129     493.829     -29.944
  O      422.096     496.143     -29.433
  H      421.237     494.186     -30.846
  H      417.880     494.706     -28.156
  H      419.128     493.547     -27.766
  H      418.751     493.896     -29.436

 6  7  8  9  10  11  12  13  14  15  26  29  33  34 0
 6-311+G(2d,p)
 ****
 36  38  39  40  41 0
 6-311+G(2d,p)
 ****
 1  2  3  4  5  16  17  18  19  20  21  22  23  24  25 0
 3-21G
 ****
 27  28  30  31  32  35  37  42  43  44  45  46  47 0
 3-21G
 ****
 48  49 0
 3-21G
 ****


