%nproc=1
%NoSave
%Mem=1900MB
#P OB98/GEN NMR

erre ene a

0 1
  C       34.252      62.278    -111.091
  O       32.933      62.396    -111.584
  P       31.703      61.710    -110.826
  C       31.917      59.791    -112.513
  O       31.732      60.140    -111.149
  C       32.174      58.294    -112.678
  O       33.489      57.971    -112.155
  C       31.151      57.399    -111.963
  O       30.918      56.265    -112.804
  C       31.882      56.987    -110.700
  O       31.357      55.791    -110.135
  C       33.321      56.885    -111.222
  N       34.306      56.941    -110.155
  C       35.068      55.792    -109.934
  O       34.803      54.751    -110.537
  N       36.096      55.851    -109.027
  C       36.225      56.901    -108.274
  N       37.297      56.947    -107.438
  C       35.279      58.035    -108.311
  C       34.381      58.011    -109.291
  O       30.376      62.363    -111.052
  O       32.110      61.767    -109.278
  H       31.386      62.187    -108.773
  H       31.867      55.575    -109.326
  H       35.353      58.828    -107.580
  H       33.660      58.813    -109.419
  H       33.461      55.952    -111.785
  H       31.802      57.781    -109.950
  H       30.202      57.910    -111.770
  H       32.185      58.067    -113.751
  H       37.947      56.171    -107.470
  H       32.779      60.344    -112.893
  H       37.654      57.826    -107.062
  H       31.041      60.100    -113.098
  P       29.417      55.703    -112.927
  C       29.785      53.916    -111.081
  O       29.032      55.023    -111.528
  O       29.630      54.422    -113.874
  O       28.408      56.621    -113.538
  H       28.795      54.230    -114.341
  H       29.344      53.542    -110.154
  H       30.818      54.217    -110.877
  H       29.774      53.114    -111.823
  H       34.923      62.804    -111.737
  H       34.528      61.245    -111.055
  H       34.304      62.695    -110.107

 3  4  5  6  7  8  9  10  11  12  13  24  27  28  29  30  32 0
 6-311+G(2d,p)
 ****
 34  35 0
 6-311+G(2d,p)
 ****
 1  2  14  15  16  17  18  19  20  21  22  23  25  26 0
 3-21G
 ****
 31  33  36  37  38  39  40  41  42  43  44  45  46 0
 3-21G
 ****


