%nproc=1
%NoSave
%Mem=1900MB
#P OB98/GEN NMR

erre ene a

0 1
  C     -223.309     635.131     330.075
  O     -222.259     634.281     330.489
  H     -223.819     634.670     329.224
  H     -222.902     636.093     329.756
  H     -224.029     635.278     330.881
  P     -221.511     634.672     331.853
  C     -220.612     632.240     331.947
  O     -220.309     633.623     332.031
  C     -219.330     631.414     331.992
  O     -218.521     631.680     330.822
  C     -218.440     631.702     333.198
  O     -218.870     630.989     334.352
  C     -217.107     631.178     332.691
  O     -217.092     629.736     332.766
  C     -217.123     631.632     331.229
  N     -212.804     634.116     330.279
  C     -213.029     632.761     330.461
  N     -211.951     631.959     330.384
  N     -214.208     632.245     330.696
  C     -215.196     633.172     330.753
  C     -215.100     634.540     330.590
  C     -213.792     635.095     330.323
  O     -213.541     636.283     330.133
  N     -216.319     635.144     330.709
  C     -217.157     634.156     330.962
  N     -216.520     632.938     331.007
  O     -222.554     634.233     332.987
  O     -221.137     636.112     331.988
  H     -217.274     629.501     333.693
  H     -222.508     634.872     333.724
  H     -211.877     634.464     330.113
  H     -218.219     634.265     331.118
  H     -216.608     630.929     330.562
  H     -216.261     631.536     333.282
  H     -211.010     632.298     330.256
  H     -218.363     632.776     333.390
  H     -212.099     630.961     330.481
  H     -219.612     630.356     331.962
  H     -221.136     632.043     331.007
  H     -221.265     631.966     332.782
  P     -218.726     631.726     335.772
  C     -220.443     630.155     336.922
  O     -219.096     630.618     336.873
  O     -219.985     632.712     335.795
  O     -217.441     632.453     335.978
  H     -219.823     633.450     336.415
  H     -220.541     629.425     337.698
  H     -220.703     629.714     335.982
  H     -221.096     630.978     337.123

 6  7  8  9  10  11  12  13  14  15  26  29  33  34 0
 6-311+G(2d,p)
 ****
 36  38  39  40  41 0
 6-311+G(2d,p)
 ****
 1  2  3  4  5  16  17  18  19  20  21  22  23  24  25 0
 3-21G
 ****
 27  28  30  31  32  35  37  42  43  44  45  46  47 0
 3-21G
 ****
 48  49 0
 3-21G
 ****


