%nproc=1
%NoSave
%Mem=1900MB
#P OB98/GEN NMR

erre ene a

0 1
  C      349.566    -151.130      76.041
  O      348.780    -152.103      75.380
  H      349.989    -150.453      75.292
  H      350.384    -151.595      76.593
  H      348.943    -150.544      76.726
  P      348.261    -153.360      76.236
  C      349.406    -155.233      77.599
  O      349.584    -154.156      76.685
  C      350.211    -156.462      77.163
  O      351.622    -156.166      77.203
  C      350.033    -157.669      78.071
  O      348.747    -158.259      78.003
  C      351.259    -158.504      77.753
  O      351.088    -159.359      76.628
  C      352.313    -157.413      77.424
  N      353.320    -157.294      78.472
  C      354.033    -158.457      78.763
  O      353.824    -159.540      78.202
  N      354.966    -158.355      79.755
  C      355.217    -157.236      80.504
  O      356.045    -157.220      81.409
  C      354.420    -156.048      80.164
  C      353.522    -156.130      79.184
  O      347.233    -154.227      75.564
  O      347.756    -152.704      77.605
  H      351.953    -159.773      76.450
  H      347.170    -153.329      78.108
  H      355.497    -159.185      79.969
  H      354.595    -155.145      80.743
  H      352.922    -155.264      78.915
  H      352.834    -157.657      76.488
  H      351.540    -159.142      78.601
  H      350.145    -157.331      79.107
  H      349.943    -156.703      76.129
  H      348.338    -155.490      77.610
  H      349.705    -154.917      78.603
  P      347.884    -158.636      79.286
  C      348.218    -160.021      81.465
  O      348.759    -159.631      80.207
  O      346.446    -158.953      79.066
  O      347.951    -157.263      80.133
  H      347.100    -157.161      80.605
  H      348.904    -160.676      81.960
  H      347.288    -160.528      81.312
  H      348.056    -159.152      82.068

 6  7  8  9  10  11  12  13  14  15  16  26  31  32  33  34  35 0
 6-311+G(2d,p)
 ****
 36  37 0
 6-311+G(2d,p)
 ****
 1  2  3  4  5  17  18  19  20  21  22  23  24  25 0
 3-21G
 ****
 27  28  29  30  38  39  40  41  42  43  44  45 0
 3-21G
 ****


