%nproc=1
%NoSave
%Mem=1900MB
#P OB98/GEN NMR

erre ene a

0 1
  C       67.006      60.504     -99.562
  O       67.122      59.495    -100.542
  H       67.550      60.188     -98.668
  H       65.956      60.654     -99.300
  H       67.437      61.440     -99.925
  P       66.413      59.765    -101.958
  C       68.603      58.980    -103.124
  O       67.197      58.821    -103.000
  C       69.213      57.783    -103.859
  O       69.128      56.612    -103.012
  C       68.508      57.459    -105.176
  O       69.486      57.165    -106.176
  C       67.675      56.231    -104.861
  O       67.423      55.436    -106.018
  C       68.507      55.554    -103.765
  N       67.687      54.702    -102.908
  C       68.296      53.556    -102.389
  O       69.467      53.296    -102.671
  N       67.554      52.705    -101.611
  C       66.295      52.943    -101.417
  N       65.608      52.051    -100.656
  C       65.598      54.114    -101.984
  C       66.347      54.945    -102.707
  O       66.912      61.236    -102.334
  O       64.930      59.605    -101.969
  H       68.289      55.150    -106.383
  H       66.386      61.616    -103.079
  H       64.543      54.262    -101.808
  H       65.919      55.830    -103.164
  H       69.305      54.942    -104.208
  H       66.706      56.544    -104.453
  H       67.878      58.273    -105.532
  H       70.280      57.979    -104.015
  H       66.116      51.254    -100.293
  H       69.041      59.058    -102.124
  H       64.619      52.120    -100.465
  H       68.814      59.897    -103.682
  P       69.073      57.516    -107.687
  C       71.491      58.024    -108.473
  O       70.343      57.202    -108.620
  O       68.980      59.112    -107.688
  O       67.801      56.871    -108.124
  H       68.052      59.400    -107.609
  H       72.251      57.700    -109.153
  H       71.856      57.951    -107.470
  H       71.232      59.040    -108.685

 6  7  8  9  10  11  12  13  14  15  16  26  30  31  32  33  35 0
 6-311+G(2d,p)
 ****
 37  38 0
 6-311+G(2d,p)
 ****
 1  2  3  4  5  17  18  19  20  21  22  23  24  25 0
 3-21G
 ****
 27  28  29  34  36  39  40  41  42  43  44  45  46 0
 3-21G
 ****


