%nproc=1
%NoSave
%Mem=1900MB
#P OB98/GEN NMR

erre ene a

0 1
  C       -0.164      80.777      -8.599
  O       -1.106      79.767      -8.912
  H       -0.634      81.753      -8.746
  H        0.699      80.696      -9.265
  H        0.158      80.691      -7.558
  P       -0.690      78.266      -8.539
  C       -0.117      77.559     -10.999
  O        0.340      77.761      -9.668
  C        1.069      77.522     -11.959
  O        1.747      78.793     -11.985
  C        2.160      76.541     -11.564
  O        1.787      75.197     -11.778
  C        3.297      77.005     -12.466
  O        3.202      76.432     -13.775
  C        3.068      78.535     -12.520
  N        4.104      79.261     -11.809
  C        5.407      79.069     -12.290
  O        5.605      78.343     -13.264
  N        6.445      79.674     -11.632
  C        6.211      80.383     -10.572
  N        7.289      80.929      -9.946
  C        4.854      80.609     -10.031
  C        3.856      80.022     -10.692
  O       -2.023      77.446      -8.868
  O       -0.188      78.084      -7.146
  H        4.088      76.530     -14.183
  H       -2.399      77.644      -9.742
  H        4.711      81.220      -9.152
  H        2.829      80.135     -10.365
  H        3.057      78.886     -13.561
  H        4.272      76.721     -12.063
  H        2.462      76.709     -10.522
  H        0.686      77.309     -12.966
  H        8.204      80.704     -10.318
  H       -0.816      78.350     -11.290
  H        7.236      81.432      -9.073
  H       -0.660      76.610     -11.025
  P        2.027      74.078     -10.658
  C        4.233      73.433     -11.822
  O        3.613      73.815     -10.599
  O        1.205      72.843     -10.802
  O        1.773      74.874      -9.290
  H        2.360      75.636      -9.146
  H        5.281      73.287     -11.660
  H        4.089      74.203     -12.551
  H        3.796      72.522     -12.174

 6  7  8  9  10  11  12  13  14  15  16  26  30  31  32  33  35 0
 6-311+G(2d,p)
 ****
 37  38 0
 6-311+G(2d,p)
 ****
 1  2  3  4  5  17  18  19  20  21  22  23  24  25 0
 3-21G
 ****
 27  28  29  34  36  39  40  41  42  43  44  45  46 0
 3-21G
 ****


