%nproc=1
%NoSave
%Mem=1900MB
#P OB98/GEN NMR

erre ene a

0 1
  C      -54.238      40.606    -111.406
  O      -52.992      40.256    -110.829
  P      -53.033      39.445    -109.442
  C      -53.047      41.606    -107.976
  O      -53.717      40.420    -108.372
  C      -53.937      42.407    -107.025
  O      -55.168      42.773    -107.679
  C      -54.335      41.657    -105.760
  O      -53.297      41.718    -104.800
  C      -55.599      42.403    -105.349
  O      -55.273      43.620    -104.652
  C      -56.248      42.703    -106.708
  N      -60.880      40.869    -105.854
  C      -60.131      41.770    -105.120
  N      -60.725      42.289    -104.023
  N      -58.916      42.130    -105.434
  C      -58.447      41.521    -106.547
  C      -59.084      40.602    -107.349
  C      -60.446      40.252    -107.019
  O      -61.185      39.536    -107.690
  N      -58.279      40.189    -108.377
  C      -57.170      40.880    -108.214
  N      -57.227      41.719    -107.132
  O      -51.497      39.399    -109.005
  O      -53.650      38.085    -109.519
  H      -56.096      44.062    -104.376
  H      -51.094      38.543    -109.245
  H      -61.817      40.642    -105.572
  H      -56.309      40.827    -108.863
  H      -56.752      43.677    -106.717
  H      -56.224      41.813    -104.673
  H      -61.648      42.039    -103.706
  H      -54.582      40.615    -105.996
  H      -60.189      42.948    -103.470
  H      -53.408      43.333    -106.770
  H      -52.831      42.209    -108.861
  H      -52.103      41.340    -107.489
  P      -53.138      40.474    -103.800
  C      -54.449      41.722    -101.940
  O      -54.334      40.561    -102.741
  O      -51.838      40.852    -102.945
  O      -52.977      39.154    -104.477
  H      -51.331      40.043    -102.746
  H      -55.503      41.876    -101.697
  H      -54.069      42.609    -102.454
  H      -53.889      41.575    -101.014
  H      -54.071      41.138    -112.319
  H      -54.784      41.226    -110.726
  H      -54.799      39.718    -111.608

 3  4  5  6  7  8  9  10  11  12  23  26  30  31 0
 6-311+G(2d,p)
 ****
 33  35  36  37  38 0
 6-311+G(2d,p)
 ****
 1  2  13  14  15  16  17  18  19  20  21  22  24  25 0
 3-21G
 ****
 27  28  29  32  34  39  40  41  42  43  44  45  46  47  48  49 0
 3-21G
 ****


