%nproc=1
%NoSave
%Mem=1900MB
#P OB98/GEN NMR

erre ene a

0 1
  C     -443.081    -493.146     265.755
  O     -443.625    -493.698     264.569
  H     -443.821    -493.245     266.556
  H     -442.866    -492.085     265.612
  H     -442.171    -493.677     266.051
  P     -442.674    -493.867     263.291
  C     -443.922    -492.331     261.624
  O     -443.604    -493.671     261.998
  C     -444.745    -492.327     260.342
  O     -444.042    -493.037     259.294
  C     -446.102    -493.013     260.471
  O     -447.019    -492.189     261.165
  C     -446.434    -493.258     259.006
  O     -446.947    -492.071     258.391
  C     -445.038    -493.622     258.431
  N     -444.834    -495.063     258.292
  C     -445.010    -495.600     257.021
  O     -445.369    -494.929     256.054
  N     -444.789    -496.949     256.904
  C     -444.488    -497.806     257.930
  O     -444.347    -499.017     257.771
  C     -444.342    -497.191     259.256
  C     -444.518    -495.873     259.373
  O     -441.819    -495.092     263.272
  O     -441.792    -492.529     263.299
  H     -447.123    -492.294     257.453
  H     -440.912    -492.718     263.676
  H     -444.921    -497.360     255.994
  H     -444.117    -497.841     260.085
  H     -444.425    -495.400     260.350
  H     -444.908    -493.167     257.440
  H     -447.194    -494.036     258.868
  H     -445.990    -493.986     260.974
  H     -444.865    -491.281     260.018
  H     -442.981    -491.785     261.463
  H     -444.473    -491.861     262.447
  P     -447.583    -492.622     262.594
  C     -449.586    -493.865     261.584
  O     -449.175    -492.816     262.454
  O     -447.165    -491.755     263.735
  O     -447.054    -494.121     262.788
  H     -446.327    -494.137     263.441
  H     -450.655    -493.911     261.561
  H     -449.197    -494.796     261.939
  H     -449.215    -493.677     260.598

 6  7  8  9  10  11  12  13  14  15  16  26  31  32  33  34  35 0
 6-311+G(2d,p)
 ****
 36  37 0
 6-311+G(2d,p)
 ****
 1  2  3  4  5  17  18  19  20  21  22  23  24  25 0
 3-21G
 ****
 27  28  29  30  38  39  40  41  42  43  44  45 0
 3-21G
 ****


