%nproc=1
%NoSave
%Mem=1900MB
#P OB98/GEN NMR

erre ene a

0 1
  C      438.365     132.067      14.574
  O      439.358     132.866      15.207
  P      440.861     132.746      14.644
  C      441.926     131.769      16.794
  O      441.880     132.858      15.891
  C      442.727     132.128      18.060
  O      444.161     132.073      17.788
  C      442.420     133.517      18.610
  O      442.545     133.461      20.035
  C      443.560     134.361      18.058
  O      443.729     135.575      18.791
  C      444.710     133.356      18.153
  N      448.450     136.740      17.340
  C      447.485     136.663      18.292
  N      446.515     135.748      18.429
  C      446.617     134.800      17.461
  C      447.539     134.754      16.426
  C      448.487     135.786      16.378
  N      449.441     135.887      15.390
  N      447.287     133.670      15.606
  C      446.241     133.066      16.154
  N      445.823     133.701      17.288
  O      441.070     134.126      13.857
  O      441.077     131.568      13.751
  H      444.587     135.968      18.532
  H      441.076     133.963      12.898
  H      447.504     137.452      19.040
  H      445.746     132.190      15.753
  H      445.117     133.278      19.179
  H      443.358     134.611      17.021
  H      441.446     133.921      18.323
  H      442.518     131.369      18.828
  H      442.385     130.897      16.315
  H      450.066     136.688      15.418
  H      449.446     135.220      14.647
  H      440.908     131.472      17.047
  P      441.180     133.448      20.874
  C      441.523     135.547      22.358
  O      441.503     134.132      22.280
  O      440.978     131.897      21.231
  O      440.010     134.010      20.137
  H      440.032     131.710      21.375
  H      441.053     135.844      23.308
  H      440.984     136.016      21.528
  H      442.559     135.887      22.357
  H      437.418     132.240      15.040
  H      438.625     131.033      14.668
  H      438.305     132.327      13.538

 3  4  5  6  7  8  9  10  11  12  22  25  29  30  31  32 0
 6-311+G(2d,p)
 ****
 33  36  37 0
 6-311+G(2d,p)
 ****
 1  2  13  14  15  16  17  18  19  20  21  23  24  26 0
 3-21G
 ****
 27  28  34  35  38  39  40  41  42  43  44  45  46  47  48 0
 3-21G
 ****


