%nproc=1
%NoSave
%Mem=1900MB
#P OB98/GEN NMR

erre ene a

0 1
  C     -217.419     113.334    -402.582
  O     -217.973     112.733    -403.733
  P     -219.322     113.319    -404.382
  C     -220.676     111.420    -403.292
  O     -220.562     112.830    -403.490
  C     -220.941     111.108    -401.820
  O     -220.076     111.889    -400.965
  C     -222.359     111.435    -401.357
  O     -223.306     110.511    -401.856
  C     -222.176     111.427    -399.847
  O     -222.198     110.082    -399.338
  C     -220.766     112.038    -399.694
  N     -220.803     113.424    -399.265
  C     -221.009     113.644    -397.897
  O     -221.223     112.700    -397.140
  N     -220.973     114.936    -397.427
  C     -220.865     115.922    -398.263
  N     -220.776     117.174    -397.731
  C     -220.813     115.738    -399.724
  C     -220.761     114.480    -400.156
  O     -219.474     113.083    -405.847
  O     -219.251     114.889    -404.059
  H     -219.419     115.388    -404.886
  H     -221.926     110.138    -398.397
  H     -220.791     116.597    -400.384
  H     -220.694     114.248    -401.214
  H     -220.179     111.454    -398.971
  H     -222.967     111.978    -399.326
  H     -222.623     112.453    -401.687
  H     -220.720     110.043    -401.657
  H     -220.799     117.255    -396.723
  H     -219.746     110.947    -403.609
  H     -220.371     117.953    -398.246
  H     -221.491     111.034    -403.922
  P     -224.451     111.091    -402.822
  C     -226.307     111.017    -401.014
  O     -225.538     111.815    -401.890
  O     -225.202     109.774    -403.332
  O     -223.950     111.913    -403.965
  H     -225.485     109.895    -404.263
  H     -226.722     111.655    -400.232
  H     -225.702     110.228    -400.544
  H     -227.133     110.552    -401.571
  H     -216.530     112.810    -402.299
  H     -218.128     113.292    -401.782
  H     -217.179     114.355    -402.793

 3  4  5  6  7  8  9  10  11  12  13  24  27  28  29  30  32 0
 6-311+G(2d,p)
 ****
 34  35 0
 6-311+G(2d,p)
 ****
 1  2  14  15  16  17  18  19  20  21  22  23  25  26 0
 3-21G
 ****
 31  33  36  37  38  39  40  41  42  43  44  45  46 0
 3-21G
 ****


