%nproc=1
%NoSave
%Mem=1900MB
#P OB98/GEN NMR

erre ene a

0 1
  C     -139.361     -71.635     117.082
  O     -138.046     -71.763     117.585
  H     -139.982     -72.426     117.514
  H     -139.360     -71.743     115.994
  H     -139.783     -70.665     117.360
  P     -136.981     -70.663     117.104
  C     -135.804     -70.124     114.847
  O     -136.596     -71.043     115.593
  C     -135.967     -70.395     113.355
  O     -137.305     -70.033     112.943
  C     -135.031     -69.585     112.465
  O     -133.728     -70.139     112.424
  C     -135.760     -69.650     111.130
  O     -135.468     -70.865     110.428
  C     -137.235     -69.634     111.556
  N     -138.834     -66.245     108.100
  C     -138.334     -67.495     107.976
  N     -137.948     -68.343     108.952
  C     -138.132     -67.785     110.162
  C     -138.623     -66.521     110.443
  C     -138.990     -65.730     109.343
  N     -139.466     -64.445     109.466
  N     -138.618     -66.292     111.805
  C     -138.142     -67.399     112.337
  N     -137.840     -68.330     111.382
  O     -135.669     -71.049     117.940
  O     -137.387     -69.244     117.322
  H     -136.043     -70.877     109.639
  H     -135.630     -70.511     118.752
  H     -138.226     -67.858     106.958
  H     -137.989     -67.572     113.395
  H     -137.839     -70.351     110.983
  H     -135.475     -68.823     110.479
  H     -134.999     -68.540     112.800
  H     -135.837     -71.471     113.181
  H     -134.753     -70.245     115.124
  H     -136.123     -69.104     115.091
  H     -139.686     -63.928     108.632
  H     -139.483     -64.016     110.382
  P     -132.680     -69.547     111.367
  C     -132.348     -69.663     108.791
  O     -133.046     -70.150     109.927
  O     -131.313     -70.286     111.755
  O     -132.538     -68.061     111.396
  H     -130.747     -69.697     112.286
  H     -132.704     -70.160     107.913
  H     -131.301     -69.851     108.908
  H     -132.512     -68.610     108.696

 6  7  8  9  10  11  12  13  14  15  25  28  32  33  34  35 0
 6-311+G(2d,p)
 ****
 36  37  40 0
 6-311+G(2d,p)
 ****
 1  2  3  4  5  16  17  18  19  20  21  22  23  24 0
 3-21G
 ****
 26  27  29  30  31  38  39 41  42  43  44  45  46  47  48 0
 3-21G
 ****


