%nproc=1
%NoSave
%Mem=1900MB
#P OB98/GEN NMR

erre ene a

0 1
  C     -501.956     973.041    -323.892
  O     -502.093     973.673    -322.633
  P     -501.189     974.979    -322.356
  C     -503.118     976.133    -321.042
  O     -501.789     975.638    -321.019
  C     -503.493     976.724    -319.675
  O     -503.754     975.672    -318.731
  C     -502.425     977.588    -319.039
  O     -502.414     978.905    -319.550
  C     -502.868     977.588    -317.589
  O     -503.948     978.517    -317.411
  C     -503.390     976.135    -317.405
  N     -501.611     974.160    -313.051
  C     -502.558     975.066    -313.286
  N     -502.964     975.561    -314.482
  C     -502.243     975.021    -315.480
  C     -501.238     974.096    -315.400
  C     -500.920     973.643    -314.111
  N     -499.956     972.680    -313.853
  N     -500.734     973.785    -316.636
  C     -501.454     974.492    -317.475
  N     -502.392     975.252    -316.846
  O     -501.679     975.985    -323.508
  O     -499.736     974.759    -322.392
  H     -504.298     978.376    -316.513
  H     -500.986     976.661    -323.680
  H     -503.065     975.472    -312.434
  H     -501.344     974.491    -318.557
  H     -504.280     976.087    -316.774
  H     -502.078     977.870    -316.884
  H     -501.437     977.117    -319.131
  H     -504.427     977.292    -319.803
  H     -503.812     975.320    -321.274
  H     -499.917     972.276    -312.942
  H     -499.597     972.154    -314.659
  H     -503.203     976.899    -321.816
  P     -501.033     979.713    -319.467
  C     -501.930     981.460    -321.175
  O     -501.402     981.236    -319.903
  O     -500.214     979.156    -320.709
  O     -500.318     979.538    -318.181
  H     -499.242     979.247    -320.549
  H     -502.400     982.453    -321.196
  H     -502.707     980.729    -321.428
  H     -501.141     981.429    -321.945
  H     -502.609     972.195    -323.939
  H     -500.944     972.718    -324.021
  H     -502.211     973.732    -324.668

 3  4  5  6  7  8  9  10  11  12  22  25  29  30  31  32 0
 6-311+G(2d,p)
 ****
 33  36  37 0
 6-311+G(2d,p)
 ****
 1  2  13  14  15  16  17  18  19  20  21  23  24  26 0
 3-21G
 ****
 27  28  34  35  38  39  40  41  42  43  44  45  46  47  48 0
 3-21G
 ****


