%nproc=1
%NoSave
%Mem=1900MB
#P OB98/GEN NMR

erre ene a

0 1
  C      335.034    -234.573     252.486
  O      334.512    -235.184     251.319
  H      334.285    -234.645     253.285
  H      335.249    -233.516     252.309
  H      335.943    -235.089     252.808
  P      335.359    -235.074     249.964
  C      333.389    -236.513     249.099
  O      334.356    -235.514     248.795
  C      332.864    -237.143     247.813
  O      333.958    -237.624     247.009
  C      331.967    -238.345     248.059
  O      330.685    -237.945     248.491
  C      332.018    -239.027     246.702
  O      331.135    -238.391     245.771
  C      333.496    -238.802     246.303
  N      334.340    -239.952     246.591
  C      334.507    -240.870     245.548
  O      333.963    -240.684     244.461
  N      335.270    -241.994     245.781
  C      335.830    -242.172     246.935
  N      336.570    -243.298     247.097
  C      335.690    -241.221     248.057
  C      334.937    -240.148     247.820
  O      336.686    -235.772     249.936
  O      335.506    -233.495     249.740
  H      331.261    -237.429     245.896
  H      336.310    -233.160     250.179
  H      336.179    -241.411     249.001
  H      334.787    -239.399     248.590
  H      333.574    -238.575     245.231
  H      331.737    -240.075     246.768
  H      332.431    -239.021     248.790
  H      332.340    -236.372     247.240
  H      336.631    -243.927     246.302
  H      332.576    -236.020     249.637
  H      337.122    -243.501     247.918
  H      333.819    -237.284     249.751
  P      329.896    -238.787     249.601
  C      328.959    -236.511     250.376
  O      328.656    -237.863     250.036
  O      330.733    -239.305     250.727
  O      329.190    -239.945     248.746
  H      329.843    -240.631     248.465
  H      328.058    -236.001     250.646
  H      329.406    -236.023     249.535
  H      329.640    -236.495     251.201

 6  7  8  9  10  11  12  13  14  15  16  26  30  31  32  33  35 0
 6-311+G(2d,p)
 ****
 37  38 0
 6-311+G(2d,p)
 ****
 1  2  3  4  5  17  18  19  20  21  22  23  24  25 0
 3-21G
 ****
 27  28  29  34  36  39  40  41  42  43  44  45  46 0
 3-21G
 ****


