%nproc=1
%NoSave
%Mem=1900MB
#P OB98/GEN NMR

erre ene a

0 1
  C      275.861     564.705      34.294
  O      277.021     564.942      33.512
  H      275.423     565.667      34.571
  H      276.127     564.162      35.208
  H      275.127     564.134      33.718
  P      277.869     563.644      33.087
  C      279.528     564.007      35.067
  O      279.330     563.955      33.662
  C      280.833     564.729      35.384
  O      281.961     563.956      34.911
  C      280.974     566.099      34.710
  O      280.239     567.121      35.374
  C      282.468     566.302      34.827
  O      282.807     566.681      36.175
  C      282.998     564.893      34.482
  N      283.302     564.719      33.069
  C      284.403     565.399      32.561
  O      285.072     566.140      33.295
  N      284.722     565.277      31.229
  C      283.996     564.527      30.457
  N      284.334     564.443      29.144
  C      282.826     563.753      30.945
  C      282.539     563.902      32.243
  O      278.071     563.824      31.505
  O      277.294     562.331      33.496
  H      282.407     567.561      36.324
  H      278.693     563.134      31.172
  H      282.247     563.155      30.272
  H      281.692     563.374      32.675
  H      283.907     564.666      35.062
  H      282.835     567.101      34.161
  H      280.703     566.060      33.649
  H      280.928     564.812      36.477
  H      285.109     565.016      28.818
  H      279.563     562.982      35.450
  H      283.732     564.026      28.443
  H      278.702     564.539      35.551
  P      279.146     567.927      34.534
  C      280.815     569.922      34.477
  O      279.483     569.489      34.715
  O      277.805     567.742      35.382
  O      278.972     567.473      33.113
  H      277.039     567.624      34.807
  H      280.881     570.978      34.637
  H      281.088     569.697      33.467
  H      281.479     569.418      35.147

 6  7  8  9  10  11  12  13  14  15  16  26  30  31  32  33  35 0
 6-311+G(2d,p)
 ****
 37  38 0
 6-311+G(2d,p)
 ****
 1  2  3  4  5  17  18  19  20  21  22  23  24  25 0
 3-21G
 ****
 27  28  29  34  36  39  40  41  42  43  44  45  46 0
 3-21G
 ****


