%nproc=1
%NoSave
%Mem=1900MB
#P OB98/GEN NMR

erre ene a

0 1
  C       46.325      25.574     -21.139
  O       47.026      24.371     -21.388
  H       46.214      25.698     -20.059
  H       45.332      25.532     -21.594
  H       46.883      26.426     -21.538
  P       47.271      23.993     -22.929
  C       46.686      21.523     -22.398
  O       46.416      22.661     -23.202
  C       45.405      20.733     -22.147
  O       44.338      21.611     -21.723
  C       44.886      19.973     -23.362
  O       45.556      18.733     -23.517
  C       43.417      19.807     -23.003
  O       43.217      18.705     -22.093
  C       43.099      21.144     -22.319
  N       39.014      22.604     -24.899
  C       39.187      21.549     -24.029
  N       38.126      20.729     -23.861
  N       40.300      21.311     -23.387
  C       41.283      22.194     -23.679
  C       41.230      23.289     -24.511
  C       39.981      23.558     -25.190
  O       39.743      24.514     -25.922
  N       42.428      23.954     -24.532
  C       43.214      23.243     -23.747
  N       42.569      22.155     -23.219
  O       48.784      23.466     -22.948
  O       47.064      25.104     -23.901
  H       43.592      18.934     -21.227
  H       49.181      23.669     -23.816
  H       38.126      22.745     -25.350
  H       44.248      23.472     -23.533
  H       42.371      21.030     -21.509
  H       42.807      19.598     -23.883
  H       37.391      20.664     -24.553
  H       44.971      20.585     -24.269
  H       38.252      19.939     -23.242
  H       45.603      20.041     -21.319
  H       47.097      21.854     -21.439
  H       47.424      20.891     -22.904
  P       46.339      18.476     -24.894
  C       44.987      16.262     -25.091
  O       45.446      17.443     -25.735
  O       47.596      17.592     -24.446
  O       46.751      19.713     -25.618
  H       48.279      17.605     -25.142
  H       44.410      15.682     -25.780
  H       44.380      16.527     -24.251
  H       45.826      15.688     -24.757

 6  7  8  9  10  11  12  13  14  15  26  29  33  34 0
 6-311+G(2d,p)
 ****
 36  38  39  40  41 0
 6-311+G(2d,p)
 ****
 1  2  3  4  5  16  17  18  19  20  21  22  23  24  25 0
 3-21G
 ****
 27  28  30  31  32  35  37  42  43  44  45  46  47 0
 3-21G
 ****
 48  49 0
 3-21G
 ****


