%nproc=1
%NoSave
%Mem=1900MB
#P OB98/GEN NMR

erre ene a

0 1
  C       10.002     103.997      48.510
  O       11.212     104.102      47.749
  P       11.144     103.780      46.181
  C       10.982     101.648      44.701
  O       10.910     102.205      46.005
  C       11.254     100.143      44.780
  O       12.652      99.864      45.016
  C       10.495      99.443      45.899
  O        9.164      99.125      45.515
  C       11.308      98.166      46.050
  O       10.936      97.225      45.022
  C       12.740      98.666      45.827
  N       15.369      96.687      49.669
  C       14.819      96.077      48.559
  N       15.004      94.742      48.453
  N       14.149      96.715      47.635
  C       14.060      98.046      47.864
  C       14.559      98.766      48.925
  C       15.285      98.046      49.947
  O       15.781      98.531      50.958
  N       14.259     100.098      48.810
  C       13.596     100.189      47.673
  N       13.434      98.967      47.068
  O       12.665     103.966      45.713
  O       10.219     104.665      45.412
  H       10.042      96.905      45.248
  H       12.694     104.227      44.775
  H       15.871      96.146      50.352
  H       13.217     101.109      47.248
  H       13.356      97.942      45.280
  H       11.132      97.671      47.009
  H       15.552      94.197      49.100
  H       10.531     100.025      46.828
  H       14.637      94.283      47.628
  H       10.969      99.695      43.818
  H       11.769     102.137      44.120
  H       10.049     101.860      44.173
  P        7.967      99.869      46.280
  C        6.622      99.344      48.438
  O        7.783      99.097      47.670
  O        6.682      99.443      45.425
  O        8.107     101.350      46.367
  H        6.016     100.155      45.447
  H        6.587      98.623      49.257
  H        5.722      99.230      47.830
  H        6.660     100.353      48.859
  H       10.202     104.240      49.533
  H        9.627     102.997      48.447
  H        9.274     104.676      48.118

 3  4  5  6  7  8  9  10  11  12  23  26  30  31 0
 6-311+G(2d,p)
 ****
 33  35  36  37  38 0
 6-311+G(2d,p)
 ****
 1  2  13  14  15  16  17  18  19  20  21  22  24  25 0
 3-21G
 ****
 27  28  29  32  34  39  40  41  42  43  44  45  46  47  48  49 0
 3-21G
 ****


