%nproc=1
%NoSave
%Mem=1900MB
#P OB98/GEN NMR

erre ene a

0 1
  C      200.888    -616.389      23.229
  O      199.808    -617.301      23.093
  P      199.568    -618.337      24.304
  C      197.027    -618.906      24.040
  O      198.380    -619.306      23.836
  C      196.107    -619.759      23.172
  O      196.020    -619.211      21.840
  C      196.562    -621.205      23.006
  O      196.173    -621.979      24.128
  C      195.857    -621.604      21.712
  O      194.483    -621.949      21.966
  C      195.952    -620.313      20.883
  N      198.038    -622.340      16.744
  C      196.939    -622.745      17.480
  N      196.274    -623.833      17.013
  N      196.529    -622.151      18.565
  C      197.300    -621.096      18.926
  C      198.416    -620.606      18.285
  C      198.834    -621.247      17.059
  O      199.737    -620.857      16.322
  N      198.946    -619.528      18.964
  C      198.125    -619.356      19.976
  N      197.100    -620.264      19.990
  O      198.909    -617.421      25.435
  O      200.798    -619.046      24.779
  H      194.097    -622.370      21.172
  H      199.580    -617.144      26.093
  H      198.299    -622.834      15.907
  H      198.217    -618.572      20.722
  H      195.057    -620.150      20.268
  H      196.318    -622.474      21.235
  H      196.551    -624.355      16.194
  H      197.649    -621.254      22.862
  H      195.465    -624.147      17.537
  H      195.095    -619.719      23.610
  H      196.918    -617.857      23.760
  H      196.779    -619.021      25.101
  P      196.936    -623.372      24.362
  C      198.025    -622.729      26.641
  O      197.102    -623.556      25.947
  O      198.431    -623.068      23.860
  O      196.342    -624.538      23.641
  H      198.798    -623.865      23.427
  H      197.665    -622.593      27.667
  H      198.130    -621.757      26.156
  H      198.997    -623.231      26.664
  H      200.937    -615.762      22.363
  H      201.804    -616.933      23.328
  H      200.737    -615.784      24.099

 3  4  5  6  7  8  9  10  11  12  23  26  30  31 0
 6-311+G(2d,p)
 ****
 33  35  36  37  38 0
 6-311+G(2d,p)
 ****
 1  2  13  14  15  16  17  18  19  20  21  22  24  25 0
 3-21G
 ****
 27  28  29  32  34  39  40  41  42  43  44  45  46  47  48  49 0
 3-21G
 ****


