%nproc=1
%NoSave
%Mem=1900MB
#P OB98/GEN NMR

erre ene a

0 1
  C       50.586     849.793    -113.209
  O       51.521     850.863    -113.125
  P       51.446     852.004    -114.267
  C       53.832     851.404    -115.080
  O       52.458     851.508    -115.412
  C       54.649     850.816    -116.261
  O       54.131     849.494    -116.577
  C       54.516     851.604    -117.560
  O       55.368     852.727    -117.583
  C       54.941     850.563    -118.583
  O       56.370     850.508    -118.642
  C       54.376     849.261    -117.981
  N       51.869     845.340    -119.994
  C       53.144     845.391    -119.456
  N       53.845     844.239    -119.426
  N       53.683     846.500    -118.999
  C       52.865     847.566    -119.040
  C       51.583     847.640    -119.564
  C       51.013     846.417    -120.109
  O       49.906     846.337    -120.661
  N       51.067     848.899    -119.442
  C       52.003     849.571    -118.814
  N       53.126     848.823    -118.578
  O       52.246     853.230    -113.596
  O       50.096     852.382    -114.703
  H       56.610     849.689    -119.125
  H       51.936     854.080    -113.995
  H       51.503     844.474    -120.311
  H       51.910     850.619    -118.511
  H       55.106     848.440    -118.063
  H       54.590     850.793    -119.599
  H       53.419     843.328    -119.661
  H       53.460     851.901    -117.758
  H       54.761     844.266    -118.985
  H       55.676     850.721    -115.973
  H       53.970     850.743    -114.225
  H       54.220     852.394    -114.832
  P       55.270     853.683    -118.871
  C       57.775     853.452    -119.515
  O       56.438     853.185    -119.880
  O       55.816     855.093    -118.340
  O       53.912     853.796    -119.440
  H       55.449     855.846    -118.872
  H       57.941     853.365    -118.429
  H       58.067     854.431    -119.851
  H       58.441     852.696    -120.000
  H       50.746     849.115    -112.397
  H       50.718     849.276    -114.137
  H       49.591     850.184    -113.156

 3  4  5  6  7  8  9  10  11  12  23  26  30  31  33  0
 6-311+G(2d,p)
 ****
 35  36  37  38 0
 6-311+G(2d,p)
 ****
 1  2  13  14  15  16  17  18  19  20  21  22  24  25  27  28  29 0
 3-21G
 ****
 32  34  39  40  41  42  43  44  45  46  47  48  49 0
 3-21G
 ****


