%nproc=1
%NoSave
%Mem=1900MB
#P OB98/GEN NMR

erre ene a

0 1
  C      668.021     840.201    -895.830
  O      669.082     840.105    -894.880
  P      670.577     840.072    -895.430
  C      671.603     841.840    -893.770
  O      671.249     841.505    -895.090
  C      672.467     843.136    -893.750
  O      673.711     842.879    -894.430
  C      671.838     844.337    -894.470
  O      672.499     845.520    -894.010
  C      672.245     844.064    -895.910
  O      672.150     845.263    -896.710
  C      673.647     843.457    -895.760
  N      673.989     842.455    -896.770
  C      674.114     842.838    -898.120
  O      673.977     844.008    -898.510
  N      674.379     841.883    -899.010
  C      674.570     840.532    -898.750
  O      674.695     839.674    -899.590
  C      674.556     840.186    -897.310
  C      674.274     841.125    -896.380
  O      670.398     840.086    -897.030
  O      671.364     838.900    -894.970
  H      672.924     845.818    -896.460
  H      670.573     839.207    -897.400
  H      674.412     842.130    -900.000
  H      674.775     839.168    -897.030
  H      674.238     840.867    -895.350
  H      674.433     844.251    -895.820
  H      671.560     843.324    -896.340
  H      670.761     844.435    -894.350
  H      672.706     843.380    -892.710
  H      672.157     841.024    -893.320
  H      670.699     841.997    -893.180
  P      672.057     846.108    -892.560
  C      674.264     845.381    -891.450
  O      672.859     845.259    -891.480
  O      670.592     846.294    -892.350
  O      672.823     847.526    -892.530
  H      672.410     848.101    -891.860
  H      674.628     845.220    -890.410
  H      674.573     846.373    -891.790
  H      674.701     844.605    -892.100
  H      667.082     840.213    -895.316
  H      668.056     839.360    -896.490
  H      668.129     841.103    -896.396

 3  4  5  6  7  8  9  10  11  12  13  23  28  29  30  31  32 0
 6-311+G(2d,p)
 ****
 33  34 0
 6-311+G(2d,p)
 ****
 1  2  14  15  16  17  18  19  20  21  22  24  25  26  27 0
 3-21G
 ****
 35  36  37  38  39  40  41  42  43  44  45 0
 3-21G
 ****


