%nproc=1
%NoSave
%Mem=1900MB
#P OB98/GEN NMR

erre ene a

0 1
  C      991.899     481.235    -507.195
  O      990.472     481.084    -507.274
  P      989.539     482.037    -506.380
  C      987.538     482.283    -508.047
  O      987.993     481.834    -506.779
  C      987.776     481.233    -509.136
  O      987.148     479.969    -508.758
  C      987.243     481.618    -510.517
  O      988.130     481.034    -511.493
  C      985.891     480.908    -510.552
  O      985.386     480.727    -511.857
  C      986.262     479.602    -509.838
  N      985.117     478.865    -509.317
  C      984.260     478.265    -510.243
  O      984.365     478.363    -511.457
  N      983.212     477.553    -509.710
  C      982.926     477.403    -508.369
  O      981.958     476.770    -507.951
  C      983.849     478.077    -507.446
  C      984.878     478.759    -507.963
  O      989.857     483.485    -506.987
  O      989.833     482.018    -504.906
  H      985.878     479.984    -512.258
  H      990.003     484.116    -506.270
  H      982.594     477.101    -510.362
  H      983.665     477.980    -506.388
  H      985.583     479.263    -507.291
  H      986.832     478.965    -510.513
  H      985.161     481.501    -509.995
  H      987.171     482.696    -510.669
  H      988.871     481.047    -509.179
  H      988.074     483.215    -508.313
  H      986.468     482.526    -507.973
  P      989.116     482.022    -512.310
  C      991.529     481.415    -511.492
  O      990.508     481.255    -512.444
  O      989.425     483.105    -511.159
  O      988.534     482.602    -513.537
  H      989.617     482.702    -510.304
  H      991.123     481.421    -510.472
  H      992.071     482.329    -511.673
  H      992.219     480.586    -511.574
  H      992.369     480.530    -507.848
  H      992.221     481.060    -506.190
  H      992.169     482.228    -507.488

 3  4  5  6  7  8  9  10  11  12  13  23  28  29  30  31  32 0
 6-311+G(2d,p)
 ****
 33  34 0
 6-311+G(2d,p)
 ****
 1  2  14  15  16  17  18  19  20  21  22  24  25  26 0
 3-21G
 ****
 27  35  36  37  38  39  40  41  42  43  44  45 0
 3-21G
 ****


