%nproc=1
%NoSave
%Mem=1900MB
#P OB98/GEN NMR

erre ene a

0 1
  C      124.724     -51.698     147.880
  O      123.943     -52.262     146.812
  P      124.657     -52.590     145.411
  C      122.978     -54.434     144.639
  O      123.594     -53.184     144.366
  C      122.365     -55.042     143.369
  O      121.052     -54.460     143.118
  C      123.198     -54.832     142.097
  O      122.992     -55.982     141.263
  C      122.545     -53.612     141.473
  O      122.827     -53.469     140.089
  C      121.073     -53.902     141.787
  N      120.196     -52.735     141.696
  C      119.263     -52.696     140.666
  O      119.164     -53.550     139.787
  N      118.437     -51.601     140.651
  C      118.479     -50.547     141.516
  O      117.731     -49.581     141.430
  C      119.503     -50.627     142.566
  C      120.300     -51.698     142.606
  O      125.530     -53.885     145.778
  O      125.539     -51.512     144.873
  H      122.471     -54.254     139.637
  H      126.431     -53.788     145.416
  H      117.745     -51.564     139.918
  H      119.567     -49.814     143.277
  H      121.055     -51.784     143.382
  H      120.703     -54.683     141.113
  H      122.902     -52.709     141.981
  H      124.265     -54.696     142.300
  H      122.204     -56.112     143.549
  H      122.187     -54.291     145.382
  H      123.725     -55.115     145.059
  P      124.249     -56.935     140.951
  C      122.619     -58.942     140.547
  O      123.703     -58.168     140.087
  O      124.485     -57.579     142.402
  O      125.450     -56.223     140.420
  H      123.659     -57.871     142.822
  H      121.843     -58.316     140.995
  H      122.973     -59.667     141.285
  H      122.189     -59.482     139.701
  H      124.100     -51.543     148.735
  H      125.136     -50.762     147.565
  H      125.517     -52.369     148.135

 3  4  5  6  7  8  9  10  11  12  13  23  28  29  30  31  32 0
 6-311+G(2d,p)
 ****
 33  34 0
 6-311+G(2d,p)
 ****
 1  2  14  15  16  17  18  19  20  21  22  24  25  26 0
 3-21G
 ****
 27  35  36  37  38  39  40  41  42  43  44  45 0
 3-21G
 ****


