%nproc=1
%NoSave
%Mem=1900MB
#P OB98/GEN NMR

erre ene a

0 1
  C     -800.182      73.997    -642.495
  O     -798.901      73.594    -642.934
  H     -800.436      73.439    -641.593
  H     -800.932      73.787    -643.262
  H     -800.185      75.068    -642.255
  P     -798.305      74.248    -644.278
  C     -798.545      73.742    -646.800
  O     -799.064      73.521    -645.493
  C     -799.500      73.174    -647.849
  O     -799.598      71.742    -647.737
  C     -800.937      73.714    -647.745
  O     -801.033      74.990    -648.368
  C     -801.681      72.628    -648.514
  O     -801.487      72.818    -649.926
  C     -800.961      71.356    -648.040
  N     -803.240      67.193    -646.232
  C     -802.898      67.530    -647.525
  N     -803.260      66.637    -648.489
  N     -802.296      68.641    -647.865
  C     -802.070      69.452    -646.817
  C     -802.358      69.247    -645.485
  C     -802.976      67.978    -645.117
  O     -803.258      67.633    -643.968
  N     -802.065      70.340    -644.714
  C     -801.541      71.197    -645.566
  N     -801.531      70.714    -646.865
  O     -796.814      74.244    -644.408
  O     -798.918      75.723    -644.297
  H     -801.962      72.087    -650.380
  H     -798.306      76.364    -643.868
  H     -803.719      66.325    -646.031
  H     -801.156      72.179    -645.314
  H     -800.918      70.596    -648.825
  H     -802.762      72.652    -648.321
  H     -803.860      65.846    -648.305
  H     -801.280      73.728    -646.708
  H     -803.089      66.893    -649.449
  H     -799.079      73.393    -648.841
  H     -797.568      73.241    -646.862
  H     -798.395      74.815    -646.977
  P     -802.056      76.105    -647.820
  C     -804.587      76.517    -648.148
  O     -803.517      75.595    -648.256
  O     -801.721      77.507    -648.230
  O     -802.070      75.880    -646.225
  H     -801.339      76.338    -645.761
  H     -805.494      76.049    -648.469
  H     -804.388      77.369    -648.764
  H     -804.687      76.829    -647.130

 6  7  8  9  10  11  12  13  14  15  26  29  33  34 0
 6-311+G(2d,p)
 ****
 36  38  39  40  41 0
 6-311+G(2d,p)
 ****
 1  2  3  4  5  16  17  18  19  20  21  22  23  24  25 0
 3-21G
 ****
 27  28  30  31  32  35  37  42  43  44  45  46  47 0
 3-21G
 ****
 48  49 0
 3-21G
 ****


