%nproc=1
%NoSave
%Mem=1900MB
#P OB98/GEN NMR

erre ene a

0 1
  C      843.504     346.459    1112.952
  O      844.840     346.549    1113.409
  H      842.909     345.878    1113.657
  H      843.077     347.469    1112.878
  H      843.459     345.994    1111.965
  P      845.751     345.242    1113.312
  C      844.346     343.987    1115.102
  O      845.629     344.484    1114.730
  C      844.465     342.528    1115.600
  O      844.819     341.691    1114.453
  C      845.543     342.313    1116.701
  O      845.028     341.363    1117.632
  C      846.690     341.698    1115.929
  O      847.539     340.883    1116.747
  C      845.952     340.887    1114.859
  N      847.046     337.407    1111.312
  C      845.977     337.554    1112.120
  N      845.732     338.545    1113.007
  C      846.712     339.472    1112.969
  C      847.845     339.470    1112.180
  C      848.030     338.362    1111.327
  N      849.153     338.163    1110.553
  N      848.651     340.585    1112.452
  C      847.991     341.246    1113.393
  N      846.816     340.609    1113.739
  O      847.232     345.849    1113.335
  O      845.516     344.385    1112.102
  H      848.269     340.551    1116.188
  H      847.500     346.072    1112.437
  H      845.224     336.793    1112.063
  H      848.348     342.137    1113.888
  H      845.584     339.927    1115.238
  H      847.307     342.484    1115.461
  H      845.813     343.240    1117.220
  H      843.487     342.209    1115.945
  H      843.688     344.021    1114.240
  H      849.207     337.278    1110.058
  H      849.917     338.807    1110.647
  H      843.923     344.620    1115.903
  P      844.196     341.923    1118.882
  C      846.003     341.372    1120.707
  O      844.668     341.149    1120.206
  O      842.711     341.356    1118.631
  O      844.199     343.435    1118.985
  H      842.048     341.980    1118.963
  H      846.156     340.785    1121.588
  H      846.127     342.408    1120.943
  H      846.716     341.088    1119.961

 6  7  8  9  10  11  12  13  14  15  25  28  32  33  34  35 0
 6-311+G(2d,p)
 ****
 36  39  40 0
 6-311+G(2d,p)
 ****
 1  2  3  4  5  16  17  18  19  20  21  22  23  24 0
 3-21G
 ****
 26  27  29  30  31  37  38  41  42  43  44  45  46  47 0
 3-21G
 ****
 48 0
 3-21G
 ****


