%nproc=1
%NoSave
%Mem=1900MB
#P OB98/GEN NMR

erre ene a

0 1
  C      405.561     -70.823    -566.077
  O      405.648     -71.832    -567.063
  H      406.263     -70.025    -566.330
  H      405.818     -71.216    -565.091
  H      404.550     -70.405    -566.058
  P      404.904     -73.228    -566.785
  C      406.537     -75.191    -566.387
  O      405.889     -74.053    -565.817
  C      407.922     -74.824    -566.920
  O      408.668     -74.106    -565.913
  C      408.784     -76.027    -567.265
  O      408.343     -76.750    -568.394
  C      410.190     -75.439    -567.252
  O      410.570     -74.847    -568.489
  C      410.066     -74.342    -566.164
  N      410.784     -74.700    -564.944
  C      411.831     -73.861    -564.588
  O      412.170     -72.878    -565.248
  N      412.514     -74.206    -563.452
  C      412.287     -75.311    -562.691
  O      412.962     -75.586    -561.707
  C      411.181     -76.179    -563.133
  C      410.491     -75.840    -564.222
  O      404.471     -73.993    -567.999
  O      403.700     -72.827    -565.814
  H      411.516     -74.615    -568.417
  H      403.016     -73.541    -565.779
  H      413.269     -73.600    -563.175
  H      410.976     -77.071    -562.553
  H      409.671     -76.466    -564.571
  H      410.485     -73.397    -566.534
  H      410.939     -76.199    -567.015
  H      408.739     -76.729    -566.420
  H      407.798     -74.163    -567.786
  H      405.913     -75.543    -567.216
  H      406.613     -75.987    -565.636
  P      408.708     -78.285    -568.651
  C      410.663     -78.849    -570.268
  O      410.276     -78.380    -568.979
  O      407.750     -79.071    -569.490
  O      408.637     -78.882    -567.151
  H      408.308     -79.795    -567.220
  H      411.731     -78.857    -570.339
  H      410.261     -78.201    -571.019
  H      410.288     -79.840    -570.414

 6  7  8  9  10  11  12  13  14  15  16  26  31  32  33  34  35 0
 6-311+G(2d,p)
 ****
 36  37 0
 6-311+G(2d,p)
 ****
 1  2  3  4  5  17  18  19  20  21  22  23  24  25 0
 3-21G
 ****
 27  28  29  30  38  39  40  41  42  43  44  45 0
 3-21G
 ****


