%nproc=1
%NoSave
%Mem=1900MB
#P OB98/GEN NMR

erre ene a

0 1
  C     -263.667    -153.304     -56.220
  O     -263.057    -153.649     -57.468
  P     -261.631    -152.984     -57.799
  C     -261.062    -154.948     -59.432
  O     -261.209    -153.550     -59.244
  C     -262.427    -155.616     -59.639
  O     -263.062    -155.081     -60.839
  C     -262.368    -157.139     -59.786
  O     -263.532    -157.665     -59.129
  C     -262.476    -157.347     -61.284
  O     -262.933    -158.649     -61.617
  C     -263.431    -156.208     -61.660
  N     -263.385    -155.875     -63.082
  C     -264.070    -156.720     -63.947
  O     -264.629    -157.751     -63.575
  N     -264.052    -156.365     -65.271
  C     -263.364    -155.313     -65.805
  O     -263.383    -155.037     -67.000
  C     -262.565    -154.520     -64.857
  C     -262.611    -154.835     -63.558
  O     -260.678    -153.756     -56.778
  O     -261.637    -151.498     -57.669
  H     -260.917    -154.691     -56.649
  H     -262.586    -158.893     -62.498
  H     -264.567    -156.944     -65.911
  H     -261.959    -153.715     -65.253
  H     -262.017    -154.290     -62.838
  H     -264.461    -156.472     -61.400
  H     -261.493    -157.196     -61.752
  H     -261.470    -157.577     -59.346
  H     -263.069    -155.350     -58.790
  H     -260.582    -155.393     -58.555
  H     -260.400    -155.127     -60.285
  P     -263.322    -158.613     -57.842
  C     -265.742    -157.983     -57.085
  O     -264.777    -158.986     -57.288
  O     -262.795    -157.531     -56.783
  O     -262.363    -159.740     -58.044
  H     -263.334    -156.725     -56.765
  H     -266.720    -158.460     -56.939
  H     -265.811    -157.317     -57.950
  H     -265.499    -157.404     -56.192
  H     -264.604    -153.813     -56.128
  H     -263.830    -152.247     -56.183
  H     -263.023    -153.594     -55.416

 3  4  5  6  7  8  9  10  11  12  13  24  28  29  30  31  32 0
 6-311+G(2d,p)
 ****
 33  34 0
 6-311+G(2d,p)
 ****
 1  2  14  15  16  17  18  19  20  21  22  23  25  26  27 0
 3-21G
 ****
 35  36  37  38  39  40  41  42  43  44  45 0
 3-21G
 ****


