%nproc=1
%NoSave
%Mem=1900MB
#P OB98/GEN NMR

erre ene a

0 1
  C     -204.998     105.023    -260.224
  O     -203.570     105.150    -260.248
  P     -202.741     104.544    -259.019
  C     -201.733     102.706    -260.560
  O     -202.410     103.011    -259.348
  C     -200.774     101.531    -260.352
  O     -199.652     101.899    -259.518
  C     -201.418     100.329    -259.677
  O     -202.124      99.516    -260.606
  C     -200.193      99.587    -259.166
  O     -199.594      98.836    -260.243
  C     -199.272     100.737    -258.739
  N     -198.472      98.978    -254.064
  C     -198.238      98.386    -255.290
  N     -197.703      97.144    -255.268
  N     -198.502      98.958    -256.435
  C     -199.016     100.205    -256.306
  C     -199.294     100.895    -255.149
  C     -199.012     100.246    -253.889
  O     -199.211     100.714    -252.772
  N     -199.817     102.133    -255.421
  C     -199.836     102.199    -256.738
  N     -199.375     101.045    -257.322
  O     -203.849     104.425    -257.867
  O     -201.583     105.381    -258.586
  H     -200.187      98.081    -260.419
  H     -203.424     104.493    -256.991
  H     -198.254      98.489    -253.212
  H     -200.171     103.054    -257.311
  H     -198.217     100.530    -258.947
  H     -200.437      98.868    -258.379
  H     -197.429      96.666    -254.424
  H     -202.050     100.637    -258.833
  H     -197.492      96.709    -256.157
  H     -200.390     101.228    -261.335
  H     -201.179     103.579    -260.915
  H     -202.473     102.488    -261.334
  P     -203.638      99.123    -260.259
  C     -204.494     100.602    -262.214
  O     -204.546     100.311    -260.833
  O     -203.700      99.316    -258.671
  O     -204.032      97.743    -260.663
  H     -204.334      98.686    -258.282
  H     -205.285     101.317    -262.451
  H     -204.648      99.696    -262.807
  H     -203.527     101.049    -262.466
  H     -205.411     105.471    -261.104
  H     -205.385     105.516    -259.357
  H     -205.263     103.987    -260.193

 3  4  5  6  7  8  9  10  11  12  23  26  30  31 0
 6-311+G(2d,p)
 ****
 33  35  36  37  38 0
 6-311+G(2d,p)
 ****
 1  2  13  14  15  16  17  18  19  20  21  22  24  25 0
 3-21G
 ****
 27  28  29  32  34  39  40  41  42  43  44  45  46  47  48  49 0
 3-21G
 ****


