%nproc=1
%NoSave
%Mem=1900MB
#P OB98/GEN NMR

erre ene a

0 1
  C       66.461      41.992      76.886
  O       65.670      40.897      77.313
  P       65.324      40.666      78.866
  C       67.253      38.945      78.902
  O       66.665      40.078      79.517
  C       68.126      38.187      79.906
  O       69.208      39.058      80.327
  C       67.384      37.725      81.166
  O       67.955      36.471      81.559
  C       67.726      38.806      82.174
  O       67.575      38.370      83.516
  C       69.166      39.137      81.767
  N       69.592      40.451      82.233
  C       70.268      40.521      83.452
  O       70.474      39.509      84.120
  N       70.699      41.746      83.895
  C       70.408      42.817      83.224
  N       70.909      44.000      83.674
  C       69.603      42.800      81.989
  C       69.253      41.595      81.546
  O       64.100      39.856      79.120
  O       65.274      42.139      79.482
  H       66.653      38.536      83.792
  H       64.392      42.574      79.374
  H       69.361      43.722      81.480
  H       68.683      41.483      80.635
  H       69.851      38.370      82.144
  H       67.065      39.667      82.024
  H       66.311      37.599      81.003
  H       68.578      37.329      79.391
  H       71.596      43.949      84.419
  H       67.883      39.287      78.076
  H       71.004      44.796      83.054
  H       66.470      38.298      78.493
  P       66.962      35.293      82.013
  C       67.431      35.496      84.557
  O       66.487      35.596      83.513
  O       67.985      34.073      82.227
  O       65.903      34.902      81.034
  H       67.504      33.232      82.109
  H       66.936      35.741      85.501
  H       68.251      36.202      84.402
  H       67.824      34.478      84.622
  H       66.570      41.960      75.822
  H       67.426      41.935      77.345
  H       65.985      42.908      77.169

 3  4  5  6  7  8  9  10  11  12  13  23  27  28  29  30  32 0
 6-311+G(2d,p)
 ****
 34  35 0
 6-311+G(2d,p)
 ****
 1  2  14  15  16  17  18  19  20  21  22  24  25  26 0
 3-21G
 ****
 31  33  36  37  38  39  40  41  42  43  44  45  46 0
 3-21G
 ****


