%nproc=1
%NoSave
%Mem=1900MB
#P OB98/GEN NMR

erre ene a

0 1
  C     -437.809    -558.799      11.510
  O     -437.919    -558.212      10.225
  H     -436.753    -558.979      11.727
  H     -438.341    -559.760      11.531
  H     -438.218    -558.127      12.269
  P     -439.409    -557.928       9.696
  C     -439.323    -555.446      10.455
  O     -439.975    -556.706      10.575
  C     -440.347    -554.319      10.450
  O     -441.145    -554.335      11.653
  C     -439.744    -552.925      10.336
  O     -439.468    -552.593       8.983
  C     -440.853    -552.066      10.932
  O     -441.901    -551.834       9.971
  C     -441.362    -552.958      12.075
  N     -442.181    -552.315      17.022
  C     -443.079    -552.454      15.980
  N     -444.389    -552.378      16.293
  N     -442.719    -552.630      14.730
  C     -441.383    -552.629      14.555
  C     -440.388    -552.497      15.502
  C     -440.797    -552.351      16.890
  O     -440.051    -552.304      17.861
  N     -439.137    -552.561      14.933
  C     -439.379    -552.687      13.637
  N     -440.721    -552.731      13.365
  O     -440.244    -559.184      10.237
  O     -439.548    -557.780       8.221
  H     -442.314    -552.689       9.733
  H     -440.900    -559.441       9.559
  H     -442.513    -552.211      17.965
  H     -438.615    -552.766      12.868
  H     -442.443    -552.844      12.241
  H     -440.488    -551.083      11.239
  H     -444.710    -551.960      17.160
  H     -438.843    -552.828      10.957
  H     -445.044    -552.414      15.523
  H     -441.036    -554.507       9.609
  H     -438.752    -555.432       9.519
  H     -438.635    -555.314      11.295
  P     -438.357    -551.477       8.686
  C     -436.473    -553.201       8.196
  O     -436.918    -552.112       8.999
  O     -438.572    -550.428       9.881
  O     -438.483    -550.811       7.358
  H     -439.021    -549.626       9.542
  H     -435.503    -553.513       8.524
  H     -436.421    -552.892       7.173
  H     -437.160    -554.016       8.288

 6  7  8  9  10  11  12  13  14  15  26  29  33  34 0
 6-311+G(2d,p)
 ****
 36  38  39  40  41 0
 6-311+G(2d,p)
 ****
 1  2  3  4  5  16  17  18  19  20  21  22  23  24  25 0
 3-21G
 ****
 27  28  30  31  32  35  37  42  43  44  45  46  47 0
 3-21G
 ****
 48  49 0
 3-21G
 ****


