%nproc=1
%NoSave
%Mem=1900MB
#P OB98/GEN NMR

erre ene a

0 1
  C      -25.161     140.223     167.718
  O      -23.895     140.416     168.319
  H      -25.762     141.124     167.875
  H      -25.670     139.375     168.184
  H      -25.053     140.054     166.645
  P      -22.789     139.281     168.044
  C      -22.144     139.810     165.553
  O      -21.812     139.898     166.929
  C      -21.043     140.438     164.697
  O      -20.769     141.770     165.194
  C      -19.727     139.654     164.709
  O      -19.142     139.728     163.404
  C      -18.869     140.417     165.705
  O      -17.477     140.206     165.480
  C      -19.361     141.858     165.496
  N      -19.116     142.702     166.665
  C      -17.819     143.204     166.821
  O      -16.939     142.910     166.009
  N      -17.537     143.982     167.913
  C      -18.452     144.191     168.812
  N      -18.101     144.958     169.881
  C      -19.819     143.641     168.713
  C      -20.081     142.923     167.624
  O      -23.640     138.187     167.245
  O      -22.116     138.771     169.275
  H      -17.291     139.248     165.598
  H      -24.249     138.567     166.590
  H      -20.541     143.830     169.496
  H      -21.062     142.487     167.469
  H      -18.863     142.313     164.630
  H      -19.096     140.086     166.725
  H      -19.847     138.612     164.999
  H      -21.425     140.556     163.676
  H      -17.148     145.300     169.919
  H      -23.093     140.320     165.357
  H      -18.712     145.138     170.663
  H      -22.265     138.753     165.301
  P      -19.009     138.390     162.532
  C      -21.248     137.164     162.170
  O      -20.365     138.171     161.700
  O      -18.510     137.186     163.261
  O      -17.970     138.819     161.381
  H      -17.379     138.061     161.208
  H      -22.107     137.118     161.534
  H      -21.555     137.396     163.168
  H      -20.747     136.218     162.162

 6  7  8  9  10  11  12  13  14  15  16  26  30  31  32  33  35 0
 6-311+G(2d,p)
 ****
 37  38 0
 6-311+G(2d,p)
 ****
 1  2  3  4  5  17  18  19  20  21  22  23  24  25 0
 3-21G
 ****
 27  28  29  34  36  39  40  41  42  43  44  45  46 0
 3-21G
 ****


