%nproc=1
%NoSave
%Mem=1900MB
#P OB98/GEN NMR

erre ene a

0 1
  C      -41.040     -21.936      38.295
  O      -41.514     -20.896      37.458
  P      -40.434     -20.124      36.552
  C      -40.472     -18.192      38.288
  O      -39.680     -19.094      37.524
  C      -39.630     -17.041      38.839
  O      -38.695     -17.568      39.811
  C      -38.832     -16.285      37.776
  O      -38.822     -14.903      38.136
  C      -37.428     -16.842      37.924
  O      -36.444     -15.927      37.445
  C      -37.375     -17.122      39.433
  N      -36.358     -18.111      39.775
  C      -35.037     -17.660      39.850
  O      -34.767     -16.496      39.554
  N      -34.051     -18.548      40.204
  C      -34.345     -19.801      40.363
  N      -33.335     -20.641      40.716
  C      -35.705     -20.341      40.173
  C      -36.655     -19.447      39.905
  O      -41.345     -19.175      35.642
  O      -39.555     -21.016      35.737
  H      -35.560     -16.342      37.561
  H      -40.940     -19.041      34.764
  H      -35.890     -21.401      40.282
  H      -37.687     -19.748      39.772
  H      -37.165     -16.199      39.990
  H      -37.337     -17.776      37.356
  H      -39.246     -16.402      36.770
  H      -40.298     -16.353      39.373
  H      -32.408     -20.249      40.826
  H      -40.909     -18.731      39.133
  H      -33.469     -21.632      40.861
  H      -41.290     -17.811      37.667
  P      -38.904     -13.824      36.952
  C      -36.398     -13.327      37.206
  O      -37.423     -13.767      36.339
  O      -38.961     -12.448      37.776
  O      -40.035     -13.919      35.984
  H      -39.078     -11.701      37.161
  H      -35.434     -13.467      36.710
  H      -36.405     -13.906      38.133
  H      -36.528     -12.263      37.426
  H      -41.860     -22.359      38.837
  H      -40.323     -21.541      38.984
  H      -40.579     -22.694      37.696

 3  4  5  6  7  8  9  10  11  12  13  21  23  27  28  29  30  32 0
 6-311+G(2d,p)
 ****
 34  35 0
 6-311+G(2d,p)
 ****
 1  2  14  15  16  17  18  19  20  22  24  25  26 0
 3-21G
 ****
 31  33  36  37  38  39  40  41  42  43  44  45  46 0
 3-21G
 ****


