%nproc=1
%NoSave
%Mem=1900MB
#P OB98/GEN NMR

erre ene a

0 1
  C     -112.863      70.788      27.969
  O     -113.825      69.773      27.766
  H     -113.324      71.604      28.530
  H     -112.532      71.173      27.001
  H     -112.007      70.410      28.533
  P     -113.286      68.329      27.323
  C     -111.681      67.718      29.269
  O     -112.957      67.528      28.676
  C     -110.969      66.377      29.445
  O     -109.565      66.633      29.752
  C     -111.542      65.504      30.574
  O     -111.478      64.129      30.173
  C     -110.547      65.716      31.700
  O     -110.555      64.646      32.638
  C     -109.248      65.840      30.910
  N     -105.052      64.775      33.446
  C     -105.794      64.004      32.576
  N     -105.397      62.726      32.394
  N     -106.846      64.445      31.938
  C     -107.124      65.746      32.195
  C     -106.472      66.614      33.036
  C     -105.318      66.108      33.751
  O     -104.633      66.736      34.551
  N     -107.103      67.832      33.069
  C     -108.144      67.692      32.266
  N     -108.199      66.443      31.714
  O     -111.840      68.665      26.723
  O     -114.142      67.602      26.342
  H     -109.735      64.700      33.170
  H     -111.901      68.772      25.755
  H     -104.260      64.382      33.925
  H     -108.888      68.449      32.069
  H     -108.870      64.868      30.568
  H     -110.776      66.647      32.232
  H     -104.580      62.324      32.826
  H     -112.568      65.759      30.856
  H     -105.908      62.161      31.727
  H     -110.994      65.839      28.490
  H     -111.807      68.186      30.251
  H     -111.086      68.385      28.637
  P     -112.757      63.497      29.443
  C     -112.865      64.521      27.053
  O     -112.466      63.428      27.867
  O     -113.852      64.659      29.562
  O     -113.239      62.226      30.059
  H     -114.739      64.267      29.668
  H     -112.602      64.322      26.035
  H     -112.370      65.410      27.382
  H     -113.924      64.654      27.128

 6  7  8  9  10  11  12  13  14  15  26  29  33  34 0
 6-311+G(2d,p)
 ****
 36  38  39  40  41 0
 6-311+G(2d,p)
 ****
 1  2  3  4  5  16  17  18  19  20  21  22  23  24  25 0
 3-21G
 ****
 27  28  30  31  32  35  37  42  43  44  45  46  47 0
 3-21G
 ****
 48  49 0
 3-21G
 ****


