%nproc=1
%NoSave
%Mem=1900MB
#P OB98/GEN NMR

erre ene a

0 1
  C      144.537      63.997    -132.935
  O      144.629      62.590    -132.756
  H      143.547      64.329    -132.612
  H      144.673      64.257    -133.987
  H      145.294      64.502    -132.325
  P      146.009      61.910    -133.205
  C      146.434      61.033    -130.796
  O      146.911      61.821    -131.879
  C      147.269      59.765    -130.650
  O      148.671      60.091    -130.487
  C      146.888      58.899    -129.452
  O      145.781      58.061    -129.763
  C      148.174      58.108    -129.240
  O      148.278      56.995    -130.156
  C      149.246      59.152    -129.533
  N      152.962      59.475    -126.126
  C      152.830      58.663    -127.231
  N      153.830      57.760    -127.429
  N      151.833      58.719    -128.065
  C      150.905      59.645    -127.714
  C      150.917      60.527    -126.662
  C      152.061      60.461    -125.764
  O      152.260      61.210    -124.794
  N      149.811      61.331    -126.657
  C      149.109      60.915    -127.692
  N      149.715      59.884    -128.353
  O      146.739      63.045    -134.069
  O      145.876      60.635    -133.979
  H      149.176      56.615    -130.098
  H      147.292      62.624    -134.752
  H      153.771      59.400    -125.528
  H      148.148      61.311    -127.994
  H      150.138      58.718    -130.008
  H      148.221      57.687    -128.236
  H      154.419      57.454    -126.670
  H      146.683      59.513    -128.568
  H      153.725      57.147    -128.225
  H      147.173      59.195    -131.583
  H      145.389      60.749    -130.989
  H      146.473      61.621    -129.875
  P      145.329      56.988    -128.654
  C      142.887      57.906    -128.596
  O      144.089      57.632    -127.866
  O      146.509      57.045    -127.569
  O      145.115      55.604    -129.170
  H      146.490      56.255    -127.003
  H      142.158      58.330    -127.937
  H      142.506      56.996    -129.010
  H      143.099      58.596    -129.386

 6  7  8  9  10  11  12  13  14  15  26  29  33  34 0
 6-311+G(2d,p)
 ****
 36  38  39  40  41 0
 6-311+G(2d,p)
 ****
 1  2  3  4  5  16  17  18  19  20  21  22  23  24  25 0
 3-21G
 ****
 27  28  30  31  32  35  37  42  43  44  45  46  47 0
 3-21G
 ****
 48  49 0
 3-21G
 ****


