%nproc=1
%NoSave
%Mem=1900MB
#P OB98/GEN NMR

erre ene a

0 1
  C     -145.298    -158.643    -194.376
  O     -145.403    -159.987    -193.952
  H     -145.598    -158.578    -195.425
  H     -144.265    -158.299    -194.283
  H     -145.956    -158.001    -193.782
  P     -145.120    -160.288    -192.403
  C     -142.647    -160.889    -192.951
  O     -143.540    -160.092    -192.187
  C     -141.404    -161.217    -192.117
  O     -140.845    -159.975    -191.611
  C     -141.706    -162.112    -190.904
  O     -140.611    -163.010    -190.705
  C     -141.779    -161.123    -189.754
  O     -141.523    -161.705    -188.482
  C     -140.716    -160.102    -190.177
  N     -140.888    -158.806    -189.527
  C     -140.030    -158.494    -188.479
  O     -139.089    -159.200    -188.108
  N     -140.285    -157.310    -187.832
  C     -141.302    -156.443    -188.110
  O     -141.496    -155.408    -187.483
  C     -142.183    -156.829    -189.223
  C     -141.940    -157.977    -189.869
  O     -145.310    -161.877    -192.294
  O     -145.971    -159.541    -191.434
  H     -146.234    -162.093    -192.078
  H     -141.580    -160.998    -187.809
  H     -139.670    -157.069    -187.069
  H     -143.006    -156.172    -189.471
  H     -142.580    -158.298    -190.683
  H     -139.710    -160.489    -189.974
  H     -142.770    -160.658    -189.719
  H     -142.633    -162.675    -191.016
  H     -140.647    -161.673    -192.766
  H     -142.343    -160.333    -193.844
  H     -143.152    -161.810    -193.257
  P     -140.888    -164.578    -190.944
  C     -140.674    -165.124    -188.393
  O     -141.482    -165.131    -189.557
  O     -139.401    -165.155    -190.997
  O     -141.722    -164.843    -192.154
  H     -138.790    -164.717    -190.384
  H     -141.229    -165.525    -187.571
  H     -140.380    -164.120    -188.169
  H     -139.802    -165.722    -188.560

 6  7  8  9  10  11  12  13  14  15  16  27  31  32  33  34  35 0
 6-311+G(2d,p)
 ****
 36  37 0
 6-311+G(2d,p)
 ****
 1  2  3  4  5  17  18  19  20  21  22  23  24  25 0
 3-21G
 ****
 26  28  29  30  38  39  40  41  42  43  44  45 0
 3-21G
 ****


