%nproc=1
%NoSave
%Mem=1900MB
#P OB98/GEN NMR

erre ene a

0 1
  C      -99.000     214.776      92.582
  O      -98.788     215.337      93.880
  P     -100.100     215.573      94.772
  C     -100.400     217.851      93.568
  O     -100.403     217.148      94.802
  C     -101.078     219.216      93.723
  O     -102.506     219.105      93.894
  C     -100.576     220.008      94.922
  O      -99.338     220.625      94.614
  C     -101.706     221.008      95.132
  O     -101.560     222.150      94.266
  C     -102.951     220.193      94.742
  N     -107.592     219.625      96.699
  C     -107.177     220.353      95.600
  N     -108.140     221.003      94.911
  N     -105.933     220.436      95.214
  C     -105.078     219.735      95.996
  C     -105.374     218.954      97.091
  C     -106.753     218.875      97.512
  O     -107.174     218.225      98.465
  N     -104.248     218.346      97.590
  C     -103.265     218.861      96.874
  N     -103.719     219.658      95.852
  O      -99.599     215.243      96.256
  O     -101.251     214.706      94.378
  H     -100.690     222.561      94.425
  H     -100.002     214.413      96.566
  H     -108.564     219.603      96.959
  H     -102.212     218.666      97.036
  H     -103.653     220.794      94.149
  H     -101.722     221.395      96.153
  H     -109.118     220.980      95.154
  H     -100.487     219.351      95.798
  H     -107.860     221.535      94.098
  H     -100.891     219.783      92.801
  H     -100.917     217.268      92.804
  H      -99.368     217.967      93.232
  P      -97.994     219.838      94.990
  C      -97.617     221.065      97.244
  O      -97.131     220.787      95.947
  O      -97.179     219.833      93.612
  O      -98.208     218.446      95.492
  H      -96.797     218.946      93.461
  H      -96.770     221.238      97.909
  H      -98.214     220.237      97.640
  H      -98.234     221.968      97.212
  H      -98.060     214.665      92.083
  H      -99.632     215.425      92.012
  H      -99.467     213.818      92.679

 3  4  5  6  7  8  9  10  11  12  23  26  30  31 0
 6-311+G(2d,p)
 ****
 33  35  36  37  38 0
 6-311+G(2d,p)
 ****
 1  2  13  14  15  16  17  18  19  20  21  22  24  25 0
 3-21G
 ****
 27  28  29  32  34  39  40  41  42  43  44  45  46  47  48  49 0
 3-21G
 ****


