%nproc=1
%NoSave
%Mem=1900MB
#P OB98/GEN NMR

erre ene a

0 1
  C      -65.179      32.346    -294.980
  O      -66.457      32.130    -294.420
  H      -64.934      33.407    -294.896
  H      -65.180      32.072    -296.037
  H      -64.418      31.769    -294.449
  P      -66.975      30.625    -294.232
  C      -65.914      30.260    -291.909
  O      -65.915      29.886    -293.282
  C      -65.678      29.030    -291.037
  O      -66.814      28.141    -291.113
  C      -64.472      28.197    -291.450
  O      -63.266      28.814    -291.045
  C      -64.785      26.882    -290.752
  O      -64.430      26.944    -289.362
  C      -66.320      26.796    -290.927
  N      -66.725      25.932    -292.037
  C      -66.330      24.601    -291.962
  O      -65.643      24.157    -291.044
  N      -66.738      23.796    -292.993
  C      -67.417      24.207    -294.105
  O      -67.713      23.454    -295.029
  C      -67.776      25.631    -294.147
  C      -67.423      26.414    -293.128
  O      -67.311      29.892    -295.488
  O      -68.255      30.784    -293.284
  H      -64.726      27.817    -289.038
  H      -69.069      30.741    -293.818
  H      -66.451      22.832    -292.960
  H      -68.309      25.990    -295.018
  H      -67.675      27.470    -293.143
  H      -66.786      26.414    -290.011
  H      -64.239      26.038    -291.177
  H      -64.479      28.027    -292.535
  H      -65.583      29.362    -289.995
  H      -66.886      30.702    -291.665
  H      -65.131      31.006    -291.746
  P      -62.062      29.014    -292.077
  C      -62.095      31.575    -292.030
  O      -62.293      30.416    -292.829
  O      -61.801      27.857    -292.983
  O      -60.796      29.312    -291.143
  H      -60.212      28.530    -291.119
  H      -62.272      32.450    -292.620
  H      -61.089      31.589    -291.665
  H      -62.774      31.559    -291.203

 6  7  8  9  10  11  12  13  14  15  16  26  31  32  33  34  35 0
 6-311+G(2d,p)
 ****
 36  37 0
 6-311+G(2d,p)
 ****
 1  2  3  4  5  17  18  19  20  21  22  23  24  25 0
 3-21G
 ****
 27  28  29  30  38  39  40  41  42  43  44  45 0
 3-21G
 ****


