%nproc=1
%NoSave
%Mem=1900MB
#P OB98/GEN NMR

erre ene a

0 1
  C      720.474    -127.017      29.993
  O      719.353    -127.688      30.541
  H      721.300    -127.730      29.905
  H      720.790    -126.194      30.634
  H      720.236    -126.639      28.993
  P      718.098    -126.797      31.003
  C      717.739    -124.913      32.735
  O      718.685    -125.731      32.055
  C      717.805    -125.142      34.248
  O      719.134    -125.563      34.626
  C      717.534    -123.890      35.073
  O      716.192    -123.437      35.013
  C      718.151    -124.241      36.416
  O      717.270    -124.964      37.273
  C      719.335    -125.153      35.998
  N      720.621    -124.492      36.177
  C      721.176    -124.578      37.454
  O      720.615    -125.152      38.398
  N      722.371    -123.943      37.633
  C      723.035    -123.205      36.688
  O      724.089    -122.629      36.923
  C      722.393    -123.136      35.366
  C      721.237    -123.767      35.176
  O      716.911    -127.562      31.521
  O      717.777    -125.896      29.720
  H      716.568    -124.346      37.544
  H      716.867    -125.501      29.777
  H      722.789    -124.006      38.550
  H      722.891    -122.553      34.597
  H      720.743    -123.726      34.208
  H      719.342    -126.068      36.603
  H      718.464    -123.341      36.961
  H      718.138    -123.076      34.657
  H      717.105    -125.943      34.510
  H      716.738    -125.187      32.373
  H      717.926    -123.860      32.499
  P      715.764    -121.929      35.282
  C      715.745    -120.281      37.302
  O      715.978    -121.615      36.852
  O      714.512    -121.454      34.628
  O      716.992    -121.121      34.616
  H      716.635    -120.289      34.237
  H      715.925    -120.223      38.355
  H      714.731    -120.008      37.098
  H      716.405    -119.612      36.790

 6  7  8  9  10  11  12  13  14  15  16  26  31  32  33  34  35 0
 6-311+G(2d,p)
 ****
 36  37 0
 6-311+G(2d,p)
 ****
 1  2  3  4  5  17  18  19  20  21  22  23  24  25 0
 3-21G
 ****
 27  28  29  30  38  39  40  41  42  43  44  45 0
 3-21G
 ****


