%nproc=1
%NoSave
%Mem=1900MB
#P OB98/GEN NMR

erre ene a

0 1
  C       30.259      51.169     741.068
  O       30.674      50.099     741.923
  P       31.614      50.491     743.161
  C       33.886      49.824     742.089
  O       33.062      50.872     742.587
  C       35.244      50.382     741.661
  O       35.932      51.008     742.766
  C       36.200      49.315     741.147
  O       35.846      48.900     739.840
  C       37.529      50.057     741.235
  O       37.685      50.947     740.114
  C       37.356      50.875     742.524
  N       41.635      48.705     744.310
  C       41.325      49.227     743.100
  N       40.159      49.783     742.706
  C       39.265      49.790     743.712
  C       39.445      49.298     744.990
  C       40.701      48.736     745.283
  N       41.012      48.188     746.511
  N       38.301      49.477     745.745
  C       37.441      50.041     744.923
  N       37.980      50.259     743.682
  O       31.851      49.093     743.900
  O       31.003      51.501     744.079
  H       37.728      50.397     739.307
  H       31.356      49.072     744.747
  H       42.111      49.186     742.350
  H       36.421      50.307     745.177
  H       37.771      51.884     742.436
  H       38.397      49.389     741.241
  H       36.204      48.454     741.826
  H       35.069      51.139     740.882
  H       33.402      49.340     741.237
  H       41.905      47.736     746.613
  H       40.295      48.129     747.217
  H       33.995      49.062     742.867
  P       34.954      47.571     739.692
  C       37.279      46.491     739.867
  O       35.917      46.405     740.236
  O       34.978      47.335     738.114
  O       33.604      47.645     740.323
  H       35.874      47.438     737.751
  H       37.826      45.666     740.331
  H       37.704      47.446     740.217
  H       37.383      46.425     738.782
  H       29.641      50.781     740.286
  H       31.120      51.639     740.642
  H       29.706      51.886     741.637

 3  4  5  6  7  8  9  10  11  12  22  25  29  30  31  32 0
 6-311+G(2d,p)
 ****
 33  36  37 0
 6-311+G(2d,p)
 ****
 1  2  13  14  15  16  17  18  19  20  21  23  24  26 0
 3-21G
 ****
 27  28  34  35  38  39  40  41  42  43  44  45  46  47  48 0
 3-21G
 ****


