%nproc=1
%NoSave
%Mem=1900MB
#P OB98/GEN NMR

erre ene a

0 1
  C       55.334    -116.544      19.373
  O       55.503    -117.847      19.932
  P       56.995    -118.441      19.948
  C       58.017    -118.434      22.329
  O       57.251    -119.144      21.367
  C       58.244    -119.260      23.602
  O       57.000    -119.844      24.070
  C       59.241    -120.406      23.415
  O       59.944    -120.567      24.649
  C       58.342    -121.611      23.208
  O       59.033    -122.825      23.488
  C       57.189    -121.272      24.167
  N       55.959    -122.003      23.869
  C       55.862    -123.307      24.358
  O       56.813    -123.822      24.949
  N       54.709    -124.015      24.131
  C       53.756    -123.485      23.429
  N       52.640    -124.238      23.236
  C       53.840    -122.133      22.843
  C       54.956    -121.457      23.105
  O       57.913    -117.131      20.000
  O       57.315    -119.283      18.755
  H       59.272    -122.828      24.440
  H       58.605    -117.181      19.314
  H       53.030    -121.741      22.247
  H       55.109    -120.459      22.722
  H       57.471    -121.500      25.204
  H       57.985    -121.644      22.172
  H       59.952    -120.240      22.601
  H       58.603    -118.584      24.386
  H       52.616    -125.158      23.661
  H       57.510    -117.505      22.594
  H       51.840    -123.927      22.706
  H       58.971    -118.141      21.877
  P       61.546    -120.515      24.623
  C       61.658    -118.220      25.770
  O       61.946    -119.600      25.879
  O       61.814    -119.509      23.401
  O       62.298    -121.791      24.450
  H       62.772    -119.444      23.232
  H       61.865    -117.743      26.732
  H       60.605    -118.068      25.520
  H       62.297    -117.763      25.009
  H       54.302    -116.266      19.422
  H       55.654    -116.550      18.352
  H       55.920    -115.840      19.926

 3  4  5  6  7  8  9  10  11  12  13  21  23  27  28  29  30  32 0
 6-311+G(2d,p)
 ****
 34  35 0
 6-311+G(2d,p)
 ****
 1  2  14  15  16  17  18  19  20  22  24  25  26 0
 3-21G
 ****
 31  33  36  37  38  39  40  41  42  43  44  45  46 0
 3-21G
 ****


