%nproc=1
%NoSave
%Mem=1900MB
#P OB98/GEN NMR

erre ene a

0 1
  C      169.043    -568.934     -58.154
  O      169.109    -567.942     -57.150
  H      170.056    -569.146     -58.505
  H      168.448    -568.569     -58.995
  H      168.608    -569.853     -57.755
  P      167.733    -567.543     -56.428
  C      167.423    -569.657     -54.957
  O      166.982    -568.926     -56.090
  C      166.301    -569.800     -53.932
  O      165.213    -570.564     -54.531
  C      166.709    -570.520     -52.640
  O      165.984    -569.928     -51.550
  C      166.171    -571.926     -52.843
  O      165.991    -572.636     -51.623
  C      164.878    -571.618     -53.597
  N      163.177    -576.294     -52.860
  C      163.597    -575.344     -51.955
  N      163.564    -575.687     -50.647
  N      164.022    -574.153     -52.302
  C      163.972    -573.932     -53.639
  C      163.581    -574.792     -54.637
  C      163.144    -576.118     -54.242
  O      162.774    -577.009     -55.001
  N      163.708    -574.202     -55.874
  C      164.164    -572.989     -55.620
  N      164.343    -572.782     -54.277
  O      166.875    -566.930     -57.636
  O      167.859    -566.589     -55.289
  H      165.562    -572.031     -50.987
  H      166.982    -565.961     -57.667
  H      162.877    -577.203     -52.542
  H      164.387    -572.234     -56.361
  H      164.094    -571.242     -52.931
  H      166.865    -572.504     -53.482
  H      163.211    -576.566     -50.304
  H      167.779    -570.494     -52.423
  H      163.826    -574.983     -49.960
  H      165.902    -568.799     -53.712
  H      168.263    -569.124     -54.494
  H      167.763    -570.647     -55.276
  P      166.719    -569.816     -50.127
  C      166.863    -567.218     -50.099
  O      167.563    -568.458     -50.112
  O      167.862    -570.939     -50.226
  O      165.826    -570.046     -48.953
  H      168.074    -571.272     -49.338
  H      167.566    -566.412     -50.090
  H      166.248    -567.165     -49.225
  H      166.249    -567.146     -50.972

 6  7  8  9  10  11  12  13  14  15  26  29  33  34 0
 6-311+G(2d,p)
 ****
 36  38  39  40  41 0
 6-311+G(2d,p)
 ****
 1  2  3  4  5  16  17  18  19  20  21  22  23  24  25 0
 3-21G
 ****
 27  28  30  31  32  35  37  42  43  44  45  46  47 0
 3-21G
 ****
 48  49 0
 3-21G
 ****


