%nproc=1
%NoSave
%Mem=1900MB
#P OB98/GEN NMR

erre ene a

0 1
  C     -246.623     442.194      52.392
  O     -246.642     442.890      53.625
  P     -247.935     442.740      54.560
  C     -250.000     444.252      54.999
  O     -249.032     443.805      54.062
  C     -250.231     445.759      54.862
  O     -249.052     446.474      55.313
  C     -250.516     446.205      53.426
  O     -251.430     447.313      53.444
  C     -249.177     446.734      52.949
  O     -249.332     447.659      51.874
  C     -248.635     447.345      54.237
  N     -244.820     450.655      54.387
  C     -246.149     450.839      54.702
  N     -246.528     452.096      55.015
  N     -247.032     449.873      54.712
  C     -246.512     448.665      54.373
  C     -245.208     448.360      54.059
  C     -244.246     449.441      54.039
  O     -243.057     449.350      53.741
  N     -245.057     447.021      53.805
  C     -246.273     446.523      53.921
  N     -247.195     447.489      54.230
  O     -247.437     443.342      55.958
  O     -248.424     441.342      54.726
  H     -249.725     448.470      52.251
  H     -247.277     442.618      56.592
  H     -244.181     451.433      54.379
  H     -246.541     445.485      53.770
  H     -249.073     448.335      54.430
  H     -248.549     445.907      52.600
  H     -245.912     452.894      54.958
  H     -250.913     445.421      52.774
  H     -247.506     452.267      55.206
  H     -251.056     446.049      55.527
  H     -249.644     444.038      56.009
  H     -250.938     443.710      54.844
  P     -252.437     447.415      52.197
  C     -252.436     448.943      50.089
  O     -251.682     448.291      51.095
  O     -253.591     448.385      52.734
  O     -252.971     446.099      51.733
  H     -254.426     448.215      52.258
  H     -252.306     450.025      50.198
  H     -253.500     448.702      50.147
  H     -252.058     448.635      49.109
  H     -245.702     442.392      51.885
  H     -247.442     442.521      51.785
  H     -246.711     441.143      52.574

 3  4  5  6  7  8  9  10  11  12  23  26  30  31 0
 6-311+G(2d,p)
 ****
 33  35  36  37  38 0
 6-311+G(2d,p)
 ****
 1  2  13  14  15  16  17  18  19  20  21  22  24  25 0
 3-21G
 ****
 27  28  29  32  34  39  40  41  42  43  44  45  46  47  48  49 0
 3-21G
 ****


