%nproc=1
%NoSave
%Mem=1900MB
#P OB98/GEN NMR

erre ene a

0 1
  C     -335.739     414.934      50.245
  O     -334.753     414.017      50.730
  P     -335.156     413.137      52.016
  C     -335.118     410.821      50.821
  O     -334.529     411.672      51.795
  C     -334.041     410.042      50.066
  O     -333.398     410.871      49.074
  C     -332.910     409.525      50.948
  O     -333.279     408.340      51.637
  C     -331.834     409.233      49.906
  O     -332.069     407.941      49.311
  C     -332.063     410.350      48.874
  N     -327.176     411.694      48.726
  C     -327.758     410.459      48.551
  N     -326.921     409.437      48.260
  N     -329.046     410.242      48.641
  C     -329.764     411.356      48.903
  C     -329.304     412.636      49.100
  C     -327.874     412.864      49.033
  O     -327.301     413.929      49.217
  N     -330.332     413.511      49.338
  C     -331.417     412.769      49.247
  N     -331.124     411.450      48.999
  O     -336.723     412.902      51.808
  O     -334.848     413.787      53.321
  H     -333.037     407.852      49.199
  H     -337.156     412.762      52.673
  H     -326.180     411.809      48.656
  H     -332.432     413.129      49.354
  H     -332.012     409.970      47.848
  H     -330.828     409.205      50.332
  H     -325.933     409.544      48.108
  H     -332.555     410.307      51.634
  H     -327.331     408.528      48.088
  H     -334.528     409.201      49.551
  H     -335.697     411.416      50.111
  H     -335.820     410.139      51.315
  P     -332.399     407.941      52.925
  C     -334.145     408.252      54.819
  O     -333.447     407.352      53.987
  O     -331.983     409.359      53.530
  O     -331.215     407.085      52.618
  H     -331.127     409.287      54.008
  H     -334.501     409.123      54.253
  H     -333.496     408.589      55.631
  H     -335.010     407.742      55.247
  H     -335.353     415.455      49.394
  H     -335.981     415.637      51.014
  H     -336.620     414.395      49.964

 3  4  5  6  7  8  9  10  11  12  23  26  30  31  33  0
 6-311+G(2d,p)
 ****
 35  36  37  38 0
 6-311+G(2d,p)
 ****
 1  2  13  14  15  16  17  18  19  20  21  22  24  25  27  28  29 0
 3-21G
 ****
 32  34  39  40  41  42  43  44  45  46  47  48  49 0
 3-21G
 ****


