%nproc=1
%NoSave
%Mem=1900MB
#P OB98/GEN NMR

erre ene a

0 1
  C     1250.920    -371.064     663.989
  O     1251.965    -370.153     663.588
  P     1251.476    -368.795     662.891
  C     1251.291    -369.642     660.440
  O     1251.983    -368.827     661.363
  C     1251.607    -369.237     658.981
  O     1251.194    -367.887     658.727
  C     1253.093    -369.279     658.654
  O     1253.548    -370.615     658.412
  C     1253.143    -368.421     657.401
  O     1252.790    -369.228     656.247
  C     1252.069    -367.367     657.667
  N     1255.297    -363.602     656.626
  C     1255.016    -364.746     655.911
  N     1255.667    -364.915     654.749
  N     1254.174    -365.667     656.319
  C     1253.558    -365.385     657.482
  C     1253.743    -364.253     658.305
  C     1254.719    -363.250     657.849
  O     1255.010    -362.248     658.452
  N     1252.932    -364.271     659.394
  C     1252.246    -365.400     659.257
  N     1252.581    -366.097     658.103
  O     1252.430    -367.672     663.543
  O     1250.032    -368.489     663.083
  H     1253.520    -369.888     656.149
  H     1251.991    -366.820     663.549
  H     1255.955    -362.936     656.290
  H     1251.475    -365.745     659.936
  H     1251.430    -367.194     656.779
  H     1254.149    -368.000     657.217
  H     1256.265    -364.225     654.350
  H     1253.687    -368.789     659.475
  H     1255.466    -365.732     654.183
  H     1251.071    -369.908     658.318
  H     1250.183    -369.533     660.594
  H     1251.537    -370.699     660.620
  P     1253.729    -371.566     659.664
  C     1256.166    -370.803     660.035
  O     1255.312    -371.868     659.772
  O     1253.131    -372.947     659.148
  O     1253.079    -371.108     660.913
  H     1252.761    -373.477     659.896
  H     1255.780    -370.160     660.820
  H     1256.335    -370.204     659.117
  H     1257.155    -371.199     660.372
  H     1251.356    -371.931     664.440
  H     1250.352    -371.356     663.130
  H     1250.277    -370.581     664.694

 3  4  5  6  7  8  9  10  11  12  23  26  30  31  33  0
 6-311+G(2d,p)
 ****
 35  36  37  38 0
 6-311+G(2d,p)
 ****
 1  2  13  14  15  16  17  18  19  20  21  22  24  25  27  28  29 0
 3-21G
 ****
 32  34  39  40  41  42  43  44  45  46  47  48  49 0
 3-21G
 ****


