%nproc=1
%NoSave
%Mem=1900MB
#P OB98/GEN NMR

erre ene a

0 1
  C      346.769    -265.527      64.605
  O      346.530    -264.141      64.812
  P      346.931    -263.125      63.642
  C      349.134    -262.075      62.748
  O      348.534    -263.098      63.531
  C      350.658    -262.115      62.872
  O      351.150    -263.434      62.495
  C      351.377    -261.093      61.987
  O      352.561    -260.633      62.655
  C      351.821    -261.913      60.789
  O      352.923    -261.308      60.120
  C      352.132    -263.250      61.460
  N      354.869    -265.941      58.165
  C      355.289    -265.057      59.141
  N      356.611    -264.795      59.188
  N      354.488    -264.493      60.005
  C      353.189    -264.844      59.834
  C      352.652    -265.718      58.921
  C      353.546    -266.328      57.967
  O      353.239    -267.098      57.056
  N      351.293    -265.847      59.081
  C      351.002    -265.020      60.063
  N      352.108    -264.366      60.533
  O      346.571    -261.696      64.278
  O      346.200    -263.332      62.358
  H      353.648    -261.247      60.771
  H      345.756    -261.348      63.874
  H      355.524    -266.344      57.519
  H      350.008    -264.846      60.461
  H      353.118    -263.237      61.941
  H      350.995    -262.007      60.070
  H      357.277    -265.144      58.504
  H      350.764    -260.226      61.703
  H      356.949    -264.120      59.864
  H      350.927    -261.968      63.928
  H      348.770    -261.105      63.085
  H      348.837    -262.204      61.698
  P      352.952    -259.091      62.417
  C      352.743    -257.677      60.235
  O      353.083    -258.915      60.829
  O      354.467    -259.012      62.931
  O      352.057    -258.117      63.109
  H      354.683    -258.101      63.211
  H      353.635    -257.254      59.772
  H      352.352    -256.962      60.964
  H      351.987    -257.847      59.462
  H      346.452    -266.076      65.467
  H      347.814    -265.688      64.444
  H      346.220    -265.860      63.749

 3  4  5  6  7  8  9  10  11  12  23  26  30  31 0
 6-311+G(2d,p)
 ****
 33  35  36  37  38 0
 6-311+G(2d,p)
 ****
 1  2  13  14  15  16  17  18  19  20  21  22  24  25 0
 3-21G
 ****
 27  28  29  32  34  39  40  41  42  43  44  45  46  47  48  49 0
 3-21G
 ****


