%nproc=1
%NoSave
%Mem=1900MB
#P OB98/GEN NMR

erre ene a

0 1
  C      -72.720     -58.001      16.965
  O      -71.347     -58.170      16.674
  H      -72.816     -57.501      17.933
  H      -73.217     -58.973      17.021
  H      -73.194     -57.383      16.198
  P      -70.983     -58.942      15.316
  C      -71.212     -61.186      16.607
  O      -71.573     -60.428      15.460
  C      -71.843     -62.572      16.522
  O      -73.266     -62.452      16.294
  C      -71.319     -63.425      15.375
  O      -70.056     -63.999      15.665
  C      -72.424     -64.462      15.258
  O      -72.245     -65.533      16.199
  C      -73.689     -63.638      15.590
  N      -74.467     -63.321      14.398
  C      -75.387     -64.288      14.002
  O      -75.549     -65.349      14.603
  N      -76.093     -64.011      12.864
  C      -75.943     -62.904      12.077
  O      -76.557     -62.749      11.028
  C      -74.968     -61.908      12.554
  C      -74.277     -62.163      13.669
  O      -69.399     -59.148      15.430
  O      -71.371     -58.233      14.061
  H      -68.939     -58.501      14.863
  H      -73.112     -65.976      16.275
  H      -76.756     -64.704      12.554
  H      -74.830     -61.014      11.957
  H      -73.537     -61.454      14.028
  H      -74.337     -64.197      16.279
  H      -72.448     -64.914      14.266
  H      -71.285     -62.837      14.449
  H      -71.692     -63.082      17.484
  H      -71.577     -60.682      17.508
  H      -70.121     -61.256      16.659
  P      -68.925     -63.977      14.527
  C      -69.870     -66.275      13.670
  O      -69.427     -64.965      13.366
  O      -67.748     -64.787      15.246
  O      -68.560     -62.606      14.068
  H      -68.072     -65.507      15.814
  H      -70.161     -66.772      12.768
  H      -70.707     -66.223      14.334
  H      -69.077     -66.820      14.137

 6  7  8  9  10  11  12  13  14  15  16  27  31  32  33  34  35 0
 6-311+G(2d,p)
 ****
 36  37 0
 6-311+G(2d,p)
 ****
 1  2  3  4  5  17  18  19  20  21  22  23  24  25 0
 3-21G
 ****
 26  28  29  30  38  39  40  41  42  43  44  45 0
 3-21G
 ****


