%nproc=1
%NoSave
%Mem=1900MB
#P OB98/GEN NMR

erre ene a

0 1
  C      319.463    -130.771    -444.051
  O      318.486    -131.705    -444.470
  H      320.451    -131.223    -444.172
  H      319.321    -130.527    -442.995
  H      319.415    -129.863    -444.656
  P      316.948    -131.259    -444.488
  C      317.227    -129.721    -446.529
  O      316.899    -129.796    -445.151
  C      315.964    -129.789    -447.386
  O      315.194    -128.578    -447.177
  C      316.247    -129.914    -448.888
  O      315.269    -130.782    -449.462
  C      316.045    -128.503    -449.403
  O      315.672    -128.477    -450.780
  C      314.956    -127.980    -448.468
  N      313.391    -123.704    -450.653
  C      313.113    -125.020    -450.968
  N      312.319    -125.234    -452.038
  N      313.576    -126.037    -450.292
  C      314.344    -125.675    -449.237
  C      314.693    -124.414    -448.822
  C      314.187    -123.294    -449.589
  O      314.409    -122.109    -449.366
  N      315.515    -124.460    -447.722
  C      315.660    -125.748    -447.474
  N      314.979    -126.528    -448.370
  O      316.232    -131.369    -443.179
  O      316.287    -132.191    -445.606
  H      314.820    -128.961    -450.855
  H      315.812    -132.938    -445.197
  H      313.015    -122.959    -451.212
  H      316.250    -126.166    -446.669
  H      313.949    -128.260    -448.800
  H      316.972    -127.929    -449.288
  H      311.913    -124.498    -452.595
  H      317.251    -130.290    -449.103
  H      312.081    -126.190    -452.275
  H      315.348    -130.624    -447.032
  H      317.884    -130.562    -446.772
  H      317.765    -128.785    -446.724
  P      315.409    -132.360    -449.235
  C      313.254    -132.864    -447.918
  O      314.671    -132.738    -447.861
  O      316.786    -132.918    -449.391
  O      314.415    -132.968    -450.338
  H      314.750    -133.842    -450.620
  H      312.879    -133.117    -446.948
  H      312.992    -133.634    -448.613
  H      312.826    -131.936    -448.235

 6  7  8  9  10  11  12  13  14  15  26  29  33  34 0
 6-311+G(2d,p)
 ****
 36  38  39  40  41 0
 6-311+G(2d,p)
 ****
 1  2  3  4  5  16  17  18  19  20  21  22  23  24  25 0
 3-21G
 ****
 27  28  30  31  32  35  37  42  43  44  45  46  47 0
 3-21G
 ****
 48  49 0
 3-21G
 ****


