%nproc=1
%NoSave
%Mem=1900MB
#P OB98/GEN NMR

erre ene a

0 1
  C      119.538    -603.875    1435.152
  O      120.786    -603.500    1435.693
  P      122.034    -603.270    1434.707
  C      122.828    -604.634    1432.685
  O      122.415    -604.673    1434.038
  C      122.790    -606.047    1432.080
  O      121.417    -606.447    1431.776
  C      123.565    -606.170    1430.761
  O      124.968    -606.232    1431.005
  C      122.951    -607.457    1430.180
  O      123.587    -608.623    1430.786
  C      121.490    -607.356    1430.654
  N      118.284    -608.850    1426.963
  C      119.162    -609.520    1427.761
  N      119.980    -609.062    1428.685
  C      119.922    -607.733    1428.757
  C      119.135    -606.882    1427.999
  C      118.257    -607.487    1427.080
  N      117.326    -606.805    1426.318
  N      119.378    -605.557    1428.311
  C      120.292    -605.598    1429.268
  N      120.614    -606.886    1429.598
  O      123.177    -602.529    1435.312
  O      121.404    -602.436    1433.485
  H      123.450    -608.549    1431.740
  H      121.861    -601.562    1433.417
  H      119.138    -610.625    1427.626
  H      120.728    -604.729    1429.743
  H      121.109    -608.311    1431.014
  H      123.084    -607.547    1429.103
  H      123.316    -605.346    1430.096
  H      123.175    -606.750    1432.830
  H      123.852    -604.247    1432.641
  H      116.641    -607.343    1425.805
  H      117.079    -605.841    1426.591
  H      122.174    -603.951    1432.118
  P      125.976    -605.955    1429.804
  C      125.803    -606.741    1427.325
  O      125.760    -607.111    1428.711
  O      127.409    -605.718    1430.194
  O      125.365    -604.666    1429.073
  H      126.071    -604.116    1428.678
  H      124.855    -606.252    1427.069
  H      125.935    -607.610    1426.743
  H      126.657    -606.031    1427.189
  H      118.825    -603.985    1435.942
  H      119.640    -604.804    1434.632
  H      119.203    -603.120    1434.472

 3  4  5  6  7  8  9  10  11  12  22  25  29  30  31  32 0
 6-311+G(2d,p)
 ****
 33  36  37 0
 6-311+G(2d,p)
 ****
 1  2  13  14  15  16  17  18  19  20  21  23  24  26 0
 3-21G
 ****
 27  28  34  35  38  39  40  41  42  43  44  45  46  47  48 0
 3-21G
 ****


