%nproc=1
%NoSave
%Mem=1900MB
#P OB98/GEN NMR

erre ene a

0 1
  C      224.531      -9.428    -269.421
  O      225.330      -8.529    -270.160
  H      225.044      -9.666    -268.485
  H      224.390     -10.354    -269.988
  H      223.561      -8.979    -269.189
  P      224.677      -7.910    -271.494
  C      225.425      -6.019    -273.155
  O      225.712      -6.793    -272.004
  C      225.980      -4.598    -272.999
  O      225.191      -3.901    -271.998
  C      227.443      -4.554    -272.557
  O      228.074      -3.436    -273.185
  C      227.349      -4.297    -271.060
  O      228.537      -3.709    -270.539
  C      226.096      -3.408    -270.990
  N      225.480      -3.421    -269.662
  C      225.118      -2.181    -269.124
  O      225.331      -1.144    -269.757
  N      224.562      -2.136    -267.870
  C      224.441      -3.232    -267.185
  N      223.903      -3.117    -265.937
  C      224.844      -4.555    -267.692
  C      225.344      -4.579    -268.928
  O      223.460      -7.058    -270.897
  O      224.279      -8.924    -272.514
  H      228.401      -3.518    -269.584
  H      223.702      -6.534    -270.114
  H      224.730      -5.437    -267.078
  H      225.661      -5.510    -269.384
  H      226.344      -2.370    -271.241
  H      227.179      -5.242    -270.525
  H      227.986      -5.470    -272.795
  H      225.838      -4.063    -273.945
  H      223.657      -2.187    -265.621
  H      224.346      -5.969    -273.324
  H      223.812      -3.888    -265.297
  H      225.886      -6.510    -274.018
  P      228.720      -3.614    -274.638
  C      230.657      -2.557    -275.990
  O      230.117      -2.825    -274.701
  O      227.802      -3.373    -275.792
  O      229.202      -5.151    -274.625
  H      228.998      -5.535    -275.501
  H      231.582      -2.030    -275.886
  H      229.967      -1.960    -276.549
  H      230.828      -3.480    -276.504

 6  7  8  9  10  11  12  13  14  15  16  26  30  31  32  33  35 0
 6-311+G(2d,p)
 ****
 37  38 0
 6-311+G(2d,p)
 ****
 1  2  3  4  5  17  18  19  20  21  22  23  24  25 0
 3-21G
 ****
 27  28  29  34  36  39  40  41  42  43  44  45  46 0
 3-21G
 ****


