%nproc=1
%NoSave
%Mem=1900MB
#P OB98/GEN NMR

erre ene a

0 1
  C      360.301     404.445     318.046
  O      361.003     403.270     318.389
  H      359.228     404.267     318.194
  H      360.476     404.702     316.998
  H      360.612     405.272     318.691
  P      362.586     403.277     318.151
  C      363.850     404.741     316.411
  O      362.830     403.775     316.643
  C      363.937     405.042     314.917
  O      362.833     405.891     314.516
  C      365.199     405.790     314.508
  O      366.327     404.948     314.403
  C      364.765     406.350     313.158
  O      364.951     405.404     312.099
  C      363.273     406.654     313.381
  N      363.031     408.089     313.552
  C      362.524     408.763     312.433
  O      362.282     408.197     311.373
  N      362.328     410.101     312.577
  C      362.647     410.842     313.689
  O      362.509     412.066     313.731
  C      363.196     410.085     314.829
  C      363.369     408.763     314.711
  O      362.957     401.719     318.094
  O      363.375     404.002     319.194
  H      363.415     401.458     318.917
  H      364.965     405.919     311.271
  H      361.970     410.605     311.783
  H      363.455     410.653     315.719
  H      363.788     408.201     315.536
  H      362.682     406.319     312.524
  H      365.351     407.236     312.899
  H      365.381     406.628     315.198
  H      363.857     404.096     314.362
  H      364.815     404.344     316.744
  H      363.620     405.650     316.986
  P      367.777     405.638     314.364
  C      368.930     407.313     312.698
  O      367.814     406.490     313.013
  O      368.708     404.363     314.075
  O      368.100     406.384     315.616
  H      368.221     403.662     313.598
  H      368.763     407.797     311.758
  H      369.812     406.710     312.637
  H      369.055     408.052     313.462

 6  7  8  9  10  11  12  13  14  15  16  27  31  32  33  34  35 0
 6-311+G(2d,p)
 ****
 36  37 0
 6-311+G(2d,p)
 ****
 1  2  3  4  5  17  18  19  20  21  22  23  24  25 0
 3-21G
 ****
 26  28  29  30  38  39  40  41  42  43  44  45 0
 3-21G
 ****


