%nproc=1
%NoSave
%Mem=1900MB
#P OB98/GEN NMR

erre ene a

0 1
  C       96.258      64.388     402.960
  O       95.494      63.211     403.259
  P       95.544      61.871     402.372
  C       93.104      61.256     402.986
  O       94.463      60.839     402.965
  C       92.349      60.598     404.144
  O       92.842      61.099     405.409
  C       90.853      60.871     404.187
  O       90.142      60.163     403.191
  C       90.515      60.456     405.619
  O       90.292      59.042     405.714
  C       91.798      60.836     406.382
  N       91.620      61.977     407.270
  C       91.197      61.693     408.576
  O       90.922      60.537     408.905
  N       91.086      62.732     409.467
  C       91.271      63.951     409.063
  N       91.164      64.936     409.995
  C       91.584      64.303     407.667
  C       91.742      63.277     406.833
  O       96.915      61.293     402.229
  O       94.942      62.283     400.947
  H       95.303      61.698     400.258
  H       89.444      58.862     405.262
  H       91.688      65.335     407.362
  H       91.986      63.442     405.785
  H       92.160      59.978     406.965
  H       89.613      60.955     405.992
  H       90.683      61.955     404.074
  H       92.537      59.514     404.098
  H       90.960      64.659     410.949
  H       92.636      60.952     402.040
  H       91.314      65.915     409.794
  H       93.059      62.347     403.059
  P       88.911      60.924     402.497
  C       87.136      59.205     403.301
  O       87.769      59.841     402.202
  O       89.469      61.293     401.039
  O       88.444      62.147     403.221
  H       89.153      62.179     400.782
  H       86.125      58.910     403.001
  H       87.068      59.874     404.170
  H       87.701      58.313     403.572
  H       96.054      65.141     403.692
  H       95.988      64.751     401.990
  H       97.301      64.149     402.974

 3  4  5  6  7  8  9  10  11  12  13  24  27  28  29  30  32 0
 6-311+G(2d,p)
 ****
 34  35 0
 6-311+G(2d,p)
 ****
 1  2  14  15  16  17  18  19  20  21  22  23  25  26 0
 3-21G
 ****
 31  33  36  37  38  39  40  41  42  43  44  45  46 0
 3-21G
 ****


