%nproc=1
%NoSave
%Mem=1900MB
#P OB98/GEN NMR

erre ene a

0 1
  C     -204.771     -90.404      63.599
  O     -205.920     -89.702      64.033
  H     -205.005     -91.471      63.561
  H     -203.946     -90.249      64.300
  H     -204.482     -90.071      62.598
  P     -205.789     -88.105      64.131
  C     -208.052     -87.823      62.900
  O     -207.304     -87.579      64.088
  C     -209.089     -86.721      62.683
  O     -210.079     -86.745      63.726
  C     -208.510     -85.307      62.693
  O     -207.932     -84.989      61.432
  C     -209.768     -84.489      62.954
  O     -210.516     -84.340      61.734
  C     -210.545     -85.384      63.941
  N     -212.305     -82.542      67.845
  C     -212.580     -82.519      66.523
  N     -212.043     -83.277      65.538
  C     -211.130     -84.127      66.034
  C     -210.741     -84.261      67.360
  C     -211.379     -83.429      68.292
  N     -211.098     -83.459      69.645
  N     -209.773     -85.237      67.490
  C     -209.621     -85.718      66.273
  N     -210.392     -85.055      65.348
  O     -204.841     -87.473      63.169
  O     -205.409     -87.925      65.681
  H     -211.256     -83.728      61.914
  H     -205.907     -88.557      66.229
  H     -213.335     -81.806      66.213
  H     -208.978     -86.553      66.008
  H     -211.623     -85.370      63.737
  H     -209.540     -83.485      63.317
  H     -207.810     -85.165      63.520
  H     -209.605     -86.928      61.737
  H     -208.552     -88.796      62.960
  H     -211.474     -82.717      70.214
  H     -210.326     -84.027      69.957
  H     -207.344     -87.843      62.065
  P     -206.512     -84.250      61.349
  C     -205.107     -85.487      59.582
  O     -206.002     -84.405      59.833
  O     -205.518     -84.669      62.384
  O     -206.862     -82.694      61.455
  H     -206.184     -82.228      61.985
  H     -204.836     -85.493      58.547
  H     -205.586     -86.411      59.830
  H     -204.228     -85.369      60.181

 6  7  8  9  10  11  12  13  14  15  25  28  32  33  34  35 0
 6-311+G(2d,p)
 ****
 36  39  40 0
 6-311+G(2d,p)
 ****
 1  2  3  4  5  16  17  18  19  20  21  22  23  24 0
 3-21G
 ****
 26  27  29  30  31  37  38  41  42  43  44  45  46  47 0
 3-21G
 ****
 48 0
 3-21G
 ****


