%nproc=1
%NoSave
%Mem=1900MB
#P OB98/GEN NMR

erre ene a

0 1
  C      474.307    -466.531    -453.230
  O      473.151    -467.287    -453.533
  H      474.243    -466.190    -452.194
  H      474.366    -465.653    -453.887
  H      475.204    -467.145    -453.350
  P      473.027    -467.825    -455.039
  C      473.143    -470.362    -454.515
  O      472.338    -469.273    -454.943
  C      472.269    -471.563    -454.163
  O      471.452    -471.280    -453.005
  C      471.323    -472.000    -455.276
  O      471.989    -472.842    -456.203
  C      470.249    -472.734    -454.483
  O      470.680    -474.070    -454.145
  C      470.135    -471.865    -453.220
  N      465.181    -470.904    -453.208
  C      465.851    -472.109    -453.196
  N      465.097    -473.227    -453.217
  N      467.154    -472.213    -453.185
  C      467.787    -471.014    -453.229
  C      467.233    -469.757    -453.243
  C      465.790    -469.661    -453.202
  O      465.134    -468.621    -453.127
  N      468.203    -468.784    -453.265
  C      469.337    -469.460    -453.304
  N      469.136    -470.817    -453.285
  O      474.541    -468.165    -455.437
  O      472.415    -466.878    -456.012
  H      469.991    -474.501    -453.607
  H      474.679    -467.925    -456.371
  H      464.176    -470.891    -453.188
  H      470.321    -469.013    -453.329
  H      469.900    -472.463    -452.332
  H      469.331    -472.842    -455.055
  H      464.131    -473.219    -453.512
  H      470.879    -471.134    -455.776
  H      465.594    -474.109    -453.283
  H      472.941    -472.389    -453.882
  H      473.711    -470.054    -453.628
  H      473.843    -470.634    -455.314
  P      472.191    -472.307    -457.700
  C      473.868    -474.284    -457.819
  O      472.983    -473.427    -458.529
  O      473.277    -471.139    -457.523
  O      470.948    -471.786    -458.348
  H      472.837    -470.266    -457.596
  H      474.320    -474.974    -458.501
  H      473.321    -474.825    -457.075
  H      474.629    -473.699    -457.347

 6  7  8  9  10  11  12  13  14  15  26  29  33  34 0
 6-311+G(2d,p)
 ****
 36  38  39  40  41 0
 6-311+G(2d,p)
 ****
 1  2  3  4  5  16  17  18  19  20  21  22  23  24  25 0
 3-21G
 ****
 27  28  30  31  32  35  37  42  43  44  45  46  47 0
 3-21G
 ****
 48  49 0
 3-21G
 ****


