%nproc=1
%NoSave
%Mem=1900MB
#P OB98/GEN NMR

erre ene a

0 1
  C     -689.932    -122.433    -895.950
  O     -689.624    -123.782    -895.590
  P     -690.057    -124.927    -896.630
  C     -687.720    -126.035    -896.890
  O     -688.772    -125.313    -897.520
  C     -686.401    -125.295    -897.070
  O     -686.382    -124.044    -896.340
  C     -685.195    -126.076    -896.550
  O     -684.846    -127.118    -897.450
  C     -684.160    -124.956    -896.450
  O     -683.605    -124.657    -897.740
  C     -685.015    -123.779    -895.960
  N     -682.416    -121.430    -892.240
  C     -682.247    -121.454    -893.570
  N     -682.973    -122.109    -894.500
  C     -683.988    -122.777    -893.920
  C     -684.289    -122.846    -892.570
  C     -683.447    -122.125    -891.700
  N     -683.605    -122.111    -890.330
  N     -685.399    -123.626    -892.350
  C     -685.754    -124.052    -893.550
  N     -684.930    -123.553    -894.530
  O     -691.012    -124.154    -897.660
  O     -690.760    -126.078    -895.980
  H     -682.893    -124.010    -897.610
  H     -691.940    -124.419    -897.520
  H     -681.412    -120.872    -893.950
  H     -686.581    -124.715    -893.760
  H     -684.723    -122.826    -896.450
  H     -683.323    -125.210    -895.790
  H     -685.405    -126.482    -895.560
  H     -686.263    -125.066    -898.140
  H     -687.643    -127.041    -897.320
  H     -682.915    -121.644    -889.780
  H     -684.328    -122.700    -889.920
  H     -687.963    -126.164    -895.830
  P     -685.558    -128.541    -897.240
  C     -686.743    -128.742    -899.510
  O     -686.890    -128.427    -898.150
  O     -686.129    -128.407    -895.760
  O     -684.690    -129.722    -897.510
  H     -686.569    -127.552    -895.610
  H     -687.716    -128.655    -900.000
  H     -686.376    -129.761    -899.630
  H     -686.046    -128.032    -899.980
  H     -689.594    -121.772    -895.179
  H     -690.990    -122.329    -896.071
  H     -689.442    -122.189    -896.869

 3  4  5  6  7  8  9  10  11  12  22  25  29  30  31  32 0
 6-311+G(2d,p)
 ****
 33  36  37 0
 6-311+G(2d,p)
 ****
 1  2  13  14  15  16  17  18  19  20  21  23  24  26 0
 3-21G
 ****
 27  28  34  35  38  39  40  41  42  43  44  45  46  47  48 0
 3-21G
 ****


