%nproc=1
%NoSave
%Mem=1900MB
#P OB98/GEN NMR

erre ene a

0 1
  C     -294.460     498.851     572.173
  O     -293.507     498.392     571.226
  H     -294.070     499.755     572.645
  H     -294.627     498.095     572.948
  H     -295.401     499.093     571.683
  P     -293.809     497.032     570.438
  C     -293.605     497.883     568.011
  O     -293.001     497.126     569.041
  C     -292.663     497.966     566.794
  O     -291.527     498.780     567.182
  C     -292.142     496.578     566.359
  O     -292.350     496.315     564.974
  C     -290.706     496.567     566.876
  O     -289.824     495.722     566.154
  C     -290.316     498.056     566.860
  N     -289.247     498.391     567.793
  C     -287.929     498.163     567.376
  O     -287.610     497.709     566.272
  N     -286.942     498.487     568.284
  C     -287.159     498.982     569.542
  O     -286.235     499.262     570.307
  C     -288.559     499.179     569.933
  C     -289.528     498.882     569.053
  O     -295.253     496.672     570.296
  O     -292.997     495.919     571.251
  H     -288.980     495.683     566.644
  H     -293.610     495.410     571.810
  H     -285.991     498.332     567.989
  H     -288.769     499.576     570.916
  H     -290.572     499.030     569.308
  H     -289.999     498.361     565.854
  H     -290.712     496.212     567.921
  H     -292.704     495.775     566.850
  H     -293.178     498.481     565.978
  H     -293.819     498.871     568.388
  H     -294.553     497.416     567.693
  P     -292.706     494.886     564.357
  C     -295.264     494.803     563.764
  O     -293.923     495.068     563.336
  O     -292.805     493.757     565.348
  O     -291.441     494.579     563.392
  H     -291.314     493.602     563.406
  H     -295.939     494.978     562.952
  H     -295.512     495.450     564.580
  H     -295.343     493.784     564.080

 6  7  8  9  10  11  12  13  14  15  16  26  31  32  33  34  35 0
 6-311+G(2d,p)
 ****
 36  37 0
 6-311+G(2d,p)
 ****
 1  2  3  4  5  17  18  19  20  21  22  23  24  25 0
 3-21G
 ****
 27  28  29  30  38  39  40  41  42  43  44  45 0
 3-21G
 ****


