%nproc=1
%NoSave
%Mem=1900MB
#P OB98/GEN NMR

erre ene a

0 1
  C       43.749     615.303     500.721
  O       44.519     614.139     500.926
  H       44.118     616.094     501.386
  H       42.698     615.106     500.960
  H       43.835     615.645     499.685
  P       44.150     612.865     500.025
  C       42.935     611.083     501.479
  O       42.813     612.240     500.658
  C       43.708     611.427     502.745
  O       43.241     612.704     503.269
  C       43.518     610.434     503.882
  O       44.299     609.266     503.710
  C       43.933     611.266     505.081
  O       45.360     611.279     505.254
  C       43.434     612.672     504.706
  N       41.434     614.825     508.886
  C       42.706     614.710     508.450
  N       43.154     614.134     507.310
  C       42.122     613.658     506.584
  C       40.783     613.702     506.905
  C       40.447     614.319     508.119
  N       39.151     614.409     508.584
  N       40.036     613.072     505.928
  C       40.909     612.659     505.028
  N       42.188     613.007     505.383
  O       45.286     611.809     500.408
  O       44.099     613.116     498.554
  H       45.731     611.509     504.385
  H       45.976     611.801     499.719
  H       43.468     615.138     509.095
  H       40.673     612.126     504.120
  H       44.156     613.450     504.955
  H       43.489     610.882     505.996
  H       42.449     610.167     503.980
  H       44.768     611.542     502.492
  H       43.469     610.295     500.931
  H       41.929     610.714     501.727
  H       38.984     614.803     509.480
  H       38.409     613.933     508.067
  P       43.989     608.009     504.664
  C       45.431     607.632     506.818
  O       44.440     608.413     506.138
  O       45.074     606.914     504.218
  O       42.603     607.482     504.560
  H       44.686     606.022     504.272
  H       45.608     608.047     507.788
  H       46.341     607.642     506.255
  H       45.084     606.625     506.918

 6  7  8  9  10  11  12  13  14  15  25  28  32  33  34  35 0
 6-311+G(2d,p)
 ****
 36  37  40 0
 6-311+G(2d,p)
 ****
 1  2  3  4  5  16  17  18  19  20  21  22  23  24 0
 3-21G
 ****
 26  27  29  30  31  38  39 41  42  43  44  45  46  47  48 0
 3-21G
 ****


