%nproc=1
%NoSave
%Mem=1900MB
#P OB98/GEN NMR

erre ene a

0 1
  C     -536.436     -77.562    -678.475
  O     -536.303     -78.634    -679.383
  H     -535.721     -77.698    -677.658
  H     -537.446     -77.561    -678.058
  H     -536.233     -76.605    -678.963
  P     -536.952     -78.451    -680.838
  C     -537.911     -80.725    -681.638
  O     -536.785     -79.859    -681.598
  C     -537.466     -82.176    -681.451
  O     -536.706     -82.587    -682.626
  C     -536.578     -82.410    -680.218
  O     -536.899     -83.692    -679.655
  C     -535.185     -82.493    -680.815
  O     -534.281     -83.208    -679.984
  C     -535.490     -83.184    -682.143
  N     -530.494     -83.466    -682.524
  C     -531.340     -83.862    -681.507
  N     -530.768     -84.357    -680.388
  N     -532.643     -83.778    -681.579
  C     -533.082     -83.282    -682.759
  C     -532.353     -82.845    -683.839
  C     -530.909     -82.931    -683.738
  O     -530.108     -82.578    -684.598
  N     -533.171     -82.358    -684.820
  C     -534.397     -82.471    -684.329
  N     -534.393     -83.026    -683.080
  O     -535.896     -77.502    -681.573
  O     -538.328     -77.873    -680.857
  H     -534.249     -82.767    -679.111
  H     -536.176     -76.569    -681.495
  H     -529.494     -83.532    -682.413
  H     -535.303     -82.151    -684.824
  H     -535.660     -84.261    -682.024
  H     -534.787     -81.486    -680.978
  H     -529.773     -84.480    -680.269
  H     -536.667     -81.632    -679.450
  H     -531.379     -84.689    -679.651
  H     -538.360     -82.815    -681.406
  H     -538.404     -80.627    -682.608
  H     -538.619     -80.441    -680.851
  P     -537.544     -83.722    -678.184
  C     -536.565     -85.945    -677.241
  O     -537.708     -85.254    -677.731
  O     -539.055     -83.259    -678.448
  O     -536.860     -82.837    -677.199
  H     -539.376     -82.738    -677.684
  H     -536.837     -86.947    -676.983
  H     -536.190     -85.443    -676.374
  H     -535.808     -85.964    -677.997

 6  7  8  9  10  11  12  13  14  15  26  29  33  34 0
 6-311+G(2d,p)
 ****
 36  38  39  40  41 0
 6-311+G(2d,p)
 ****
 1  2  3  4  5  16  17  18  19  20  21  22  23  24  25 0
 3-21G
 ****
 27  28  30  31  32  35  37  42  43  44  45  46  47 0
 3-21G
 ****
 48  49 0
 3-21G
 ****


