%nproc=1
%NoSave
%Mem=1900MB
#P OB98/GEN NMR

erre ene a

0 1
  C      117.783     691.779      41.131
  O      118.975     691.483      41.841
  P      119.219     689.956      42.275
  C      121.497     689.774      41.044
  O      120.151     689.326      41.128
  C      122.465     688.594      41.122
  O      122.180     687.654      40.065
  C      123.929     688.964      40.959
  O      124.502     689.437      42.165
  C      124.526     687.616      40.582
  O      124.701     686.813      41.765
  C      123.434     687.014      39.693
  N      126.029     685.345      35.613
  C      126.058     684.976      36.910
  N      125.344     685.483      37.937
  C      124.559     686.490      37.530
  C      124.450     687.003      36.241
  C      125.224     686.384      35.249
  N      125.168     686.738      33.920
  N      123.544     688.040      36.209
  C      123.106     688.148      37.444
  N      123.680     687.230      38.279
  O      117.794     689.272      42.010
  O      119.683     689.764      43.679
  H      124.997     685.936      41.472
  H      117.701     688.472      42.557
  H      126.736     684.165      37.151
  H      122.368     688.869      37.779
  H      123.310     685.939      39.847
  H      125.509     687.703      40.110
  H      124.075     689.670      40.127
  H      122.299     688.086      42.078
  H      121.702     690.454      41.874
  H      125.611     686.129      33.248
  H      124.430     687.366      33.628
  H      121.633     690.318      40.104
  P      125.640     690.571      42.032
  C      124.031     692.561      42.476
  O      124.868     691.891      41.559
  O      126.456     690.107      40.735
  O      126.505     690.705      43.236
  H      127.369     690.452      40.769
  H      123.838     693.573      42.111
  H      124.494     692.622      43.463
  H      123.073     692.032      42.562
  H      117.751     692.825      40.908
  H      116.936     691.516      41.730
  H      117.762     691.219      40.220

 3  4  5  6  7  8  9  10  11  12  22  25  29  30  31  32 0
 6-311+G(2d,p)
 ****
 33  36  37 0
 6-311+G(2d,p)
 ****
 1  2  13  14  15  16  17  18  19  20  21  23  24  26 0
 3-21G
 ****
 27  28  34  35  38  39  40  41  42  43  44  45  46  47  48 0
 3-21G
 ****


