%nproc=1
%NoSave
%Mem=1900MB
#P OB98/GEN NMR

erre ene a

0 1
  C      -16.048      -1.948      -4.488
  O      -14.646      -2.126      -4.546
  H      -16.456      -2.637      -3.744
  H      -16.503      -2.169      -5.457
  H      -16.291      -0.926      -4.187
  P      -13.810      -1.255      -5.598
  C      -13.746      -3.425      -6.996
  O      -13.015      -2.305      -6.513
  C      -13.410      -3.685      -8.462
  O      -14.280      -4.695      -9.006
  C      -13.553      -2.461      -9.365
  O      -12.406      -1.634      -9.271
  C      -13.679      -3.132     -10.722
  O      -12.380      -3.573     -11.167
  C      -14.561      -4.350     -10.391
  N      -18.430      -3.935     -13.648
  C      -17.074      -4.030     -13.892
  N      -16.693      -3.977     -15.186
  N      -16.173      -4.154     -12.953
  C      -16.692      -4.122     -11.705
  C      -18.014      -4.014     -11.336
  C      -19.007      -3.945     -12.387
  O      -20.221      -3.884     -12.214
  N      -18.150      -3.921      -9.974
  C      -16.917      -4.028      -9.519
  N      -15.992      -4.143     -10.531
  O      -12.945      -0.178      -5.019
  O      -14.916      -0.669      -6.593
  H      -11.835      -2.775     -11.293
  H      -15.225       0.208      -6.298
  H      -19.077      -3.833     -14.412
  H      -16.637      -4.031      -8.472
  H      -14.306      -5.221     -11.005
  H      -14.074      -2.465     -11.490
  H      -17.320      -3.734     -15.938
  H      -14.476      -1.912      -9.153
  H      -15.699      -3.987     -15.380
  H      -12.388      -4.085      -8.505
  H      -14.810      -3.197      -6.883
  H      -13.515      -4.316      -6.404
  P      -12.499      -0.130      -8.710
  C      -11.908       0.788     -11.055
  O      -11.567       0.742      -9.680
  O      -12.197       0.015      -7.259
  O      -13.960       0.357      -9.128
  H      -14.656       0.094      -8.475
  H      -11.204       1.402     -11.577
  H      -12.890       1.198     -11.165
  H      -11.887      -0.202     -11.461

 6  7  8  9  10  11  12  13  14  15  26  29  33  34 0
 6-311+G(2d,p)
 ****
 36  38  39  40  41 0
 6-311+G(2d,p)
 ****
 1  2  3  4  5  16  17  18  19  20  21  22  23  24  25 0
 3-21G
 ****
 27  28  30  31  32  35  37  42  43  44  45  46  47 0
 3-21G
 ****
 48  49 0
 3-21G
 ****


