%nproc=1
%NoSave
%Mem=1900MB
#P OB98/GEN NMR

erre ene a

0 1
  C     -631.991     677.240    -608.829
  O     -631.971     677.216    -607.398
  P     -630.608     677.723    -606.710
  C     -631.749     679.846    -605.743
  O     -630.692     679.325    -606.549
  C     -631.364     681.190    -605.137
  O     -630.142     681.079    -604.344
  C     -631.128     682.300    -606.153
  O     -631.569     683.535    -605.583
  C     -629.617     682.321    -606.299
  O     -629.163     683.546    -606.858
  C     -629.221     682.095    -604.845
  N     -624.451     683.745    -604.625
  C     -625.608     684.413    -604.928
  N     -625.485     685.750    -605.173
  N     -626.771     683.843    -604.993
  C     -626.761     682.522    -604.696
  C     -625.672     681.739    -604.352
  C     -624.375     682.386    -604.315
  O     -623.321     681.821    -604.054
  N     -626.064     680.445    -604.100
  C     -627.355     680.443    -604.344
  N     -627.847     681.693    -604.653
  O     -629.520     677.521    -607.876
  O     -630.241     676.968    -605.470
  H     -629.469     684.277    -606.289
  H     -629.012     676.704    -607.713
  H     -623.557     684.216    -604.598
  H     -627.991     679.582    -604.282
  H     -629.357     683.003    -604.231
  H     -629.254     681.505    -606.919
  H     -624.620     686.252    -605.086
  H     -631.617     682.134    -607.136
  H     -626.324     686.280    -605.352
  H     -632.164     681.499    -604.448
  H     -631.976     679.127    -604.940
  H     -632.666     679.904    -606.339
  P     -633.121     683.885    -605.647
  C     -633.887     683.325    -603.226
  O     -633.875     682.932    -604.594
  O     -633.553     683.277    -607.074
  O     -633.435     685.334    -605.545
  H     -634.208     683.889    -607.498
  H     -634.746     682.892    -602.748
  H     -633.901     684.406    -603.111
  H     -632.982     682.917    -602.744
  H     -632.938     676.885    -609.178
  H     -631.212     676.611    -609.207
  H     -631.838     678.242    -609.171

 3  4  5  6  7  8  9  10  11  12  23  26  30  31 0
 6-311+G(2d,p)
 ****
 33  35  36  37  38 0
 6-311+G(2d,p)
 ****
 1  2  13  14  15  16  17  18  19  20  21  22  24  25 0
 3-21G
 ****
 27  28  29  32  34  39  40  41  42  43  44  45  46  47  48  49 0
 3-21G
 ****


