%nproc=1
%NoSave
%Mem=1900MB
#P OB98/GEN NMR

erre ene a

0 1
  C      -88.570    -895.079    -552.789
  O      -87.498    -895.434    -553.637
  H      -89.375    -894.659    -553.396
  H      -88.252    -894.329    -552.060
  H      -88.950    -895.964    -552.266
  P      -86.143    -895.974    -552.973
  C      -85.498    -898.174    -551.777
  O      -86.341    -897.547    -552.730
  C      -85.171    -899.614    -552.194
  O      -86.417    -900.351    -552.353
  C      -84.415    -899.711    -553.532
  O      -83.600    -900.887    -553.480
  C      -85.564    -899.907    -554.510
  O      -85.101    -900.351    -555.764
  C      -86.453    -900.854    -553.704
  N      -87.808    -900.920    -554.228
  C      -88.027    -901.816    -555.273
  O      -87.092    -902.488    -555.717
  N      -89.284    -901.912    -555.818
  C      -90.230    -901.134    -555.396
  N      -91.447    -901.263    -555.983
  C      -90.028    -900.130    -554.327
  C      -88.808    -900.083    -553.787
  O      -85.656    -895.209    -551.785
  O      -85.080    -895.926    -554.170
  H      -85.821    -900.341    -556.430
  H      -84.478    -895.167    -554.048
  H      -90.840    -899.484    -554.022
  H      -88.567    -899.377    -553.000
  H      -86.035    -901.869    -553.689
  H      -86.081    -898.956    -554.688
  H      -83.803    -898.833    -553.745
  H      -84.613    -900.101    -551.389
  H      -91.535    -901.961    -556.720
  H      -86.025    -898.173    -550.817
  H      -92.245    -900.697    -555.754
  H      -84.568    -897.605    -551.664
  P      -81.998    -900.824    -553.449
  C      -80.819    -898.789    -552.374
  O      -81.516    -900.015    -552.150
  O      -81.375    -900.349    -554.725
  O      -81.527    -902.331    -553.131
  H      -80.672    -902.495    -553.563
  H      -80.555    -898.352    -551.434
  H      -81.448    -898.115    -552.916
  H      -79.931    -898.982    -552.940

 6  7  8  9  10  11  12  13  14  15  16  26  30  31  32  33  35 0
 6-311+G(2d,p)
 ****
 37  38 0
 6-311+G(2d,p)
 ****
 1  2  3  4  5  17  18  19  20  21  22  23  24  25 0
 3-21G
 ****
 27  28  29  34  36  39  40  41  42  43  44  45  46 0
 3-21G
 ****


