%nproc=1
%NoSave
%Mem=1900MB
#P OB98/GEN NMR

erre ene a

0 1
  C      -18.039      13.825     -67.277
  O      -18.436      13.381     -65.993
  H      -17.021      14.217     -67.214
  H      -18.705      14.624     -67.615
  H      -18.058      12.997     -67.991
  P      -19.809      12.560     -65.916
  C      -22.253      13.507     -65.833
  O      -20.976      13.528     -66.455
  C      -23.239      14.354     -66.633
  O      -23.572      13.712     -67.879
  C      -24.586      14.548     -65.957
  O      -24.522      15.435     -64.862
  C      -25.411      15.079     -67.121
  O      -25.247      16.493     -67.285
  C      -24.810      14.315     -68.326
  N      -25.739      13.339     -68.863
  C      -25.901      13.368     -70.254
  O      -25.261      14.170     -70.934
  N      -26.808      12.516     -70.828
  C      -27.512      11.726     -70.080
  N      -28.418      10.929     -70.709
  C      -27.375      11.665     -68.611
  C      -26.479      12.492     -68.072
  O      -20.086      12.495     -64.343
  O      -19.778      11.228     -66.586
  H      -25.729      16.913     -66.542
  H      -20.008      13.354     -63.896
  H      -27.976      10.979     -68.033
  H      -26.312      12.514     -67.001
  H      -24.544      15.014     -69.130
  H      -26.479      14.898     -66.974
  H      -25.003      13.577     -65.659
  H      -22.760      15.317     -66.853
  H      -28.519      11.043     -71.711
  H      -22.185      13.873     -64.804
  H      -29.073      10.334     -70.225
  H      -22.587      12.465     -65.794
  P      -25.850      15.956     -64.135
  C      -27.535      17.853     -64.579
  O      -26.555      16.990     -65.144
  O      -25.657      16.482     -62.753
  O      -26.829      14.691     -64.219
  H      -27.029      14.388     -65.122
  H      -27.931      18.491     -65.342
  H      -27.086      18.450     -63.813
  H      -28.325      17.268     -64.158

 6  7  8  9  10  11  12  13  14  15  16  26  30  31  32  33  35 0
 6-311+G(2d,p)
 ****
 37  38 0
 6-311+G(2d,p)
 ****
 1  2  3  4  5  17  18  19  20  21  22  23  24  25 0
 3-21G
 ****
 27  28  29  34  36  39  40  41  42  43  44  45  46 0
 3-21G
 ****


