%nproc=1
%NoSave
%Mem=1900MB
#P OB98/GEN NMR

erre ene a

0 1
  C      264.483     108.843     263.590
  O      265.476     108.975     262.588
  P      265.377     110.125     261.482
  C      267.882     110.862     261.761
  O      266.843     110.412     260.920
  C      269.219     110.698     261.028
  O      269.178     111.383     259.760
  C      270.377     111.277     261.839
  O      271.004     110.264     262.608
  C      271.273     111.862     260.763
  O      272.087     110.834     260.172
  C      270.235     112.380     259.739
  N      269.622     113.700     259.978
  C      270.438     114.819     260.130
  O      271.661     114.788     260.051
  N      269.786     115.994     260.409
  C      268.434     116.156     260.498
  O      267.882     117.138     260.980
  C      267.631     115.010     260.061
  C      268.249     113.850     259.847
  O      265.050     111.430     262.347
  O      264.365     109.898     260.407
  H      272.555     110.384     260.899
  H      264.096     111.627     262.325
  H      270.377     116.781     260.660
  H      266.559     115.135     259.981
  H      267.668     112.975     259.559
  H      270.657     112.397     258.729
  H      271.963     112.593     261.181
  H      270.020     112.094     262.480
  H      269.386     109.632     260.831
  H      267.886     110.289     262.693
  H      267.721     111.912     262.027
  P      271.539     110.605     264.078
  C      271.148     108.152     264.708
  O      272.080     109.214     264.663
  O      270.584     111.342     264.955
  O      272.866     111.458     263.794
  H      272.666     112.414     263.865
  H      271.679     107.228     264.951
  H      270.650     108.034     263.740
  H      270.405     108.347     265.486
  H      264.728     108.021     264.229
  H      263.533     108.666     263.130
  H      264.438     109.742     264.168

 3  4  5  6  7  8  9  10  11  12  13  23  28  29  30  31  32 0
 6-311+G(2d,p)
 ****
 33  34 0
 6-311+G(2d,p)
 ****
 1  2  14  15  16  17  18  19  20  21  22  24  25  26  27 0
 3-21G
 ****
 35  36  37  38  39  40  41  42  43  44  45 0
 3-21G
 ****


