%nproc=1
%NoSave
%Mem=1900MB
#P OB98/GEN NMR

erre ene a

0 1
  C     -454.893     512.659    -889.630
  O     -456.060     511.900    -889.900
  H     -454.637     513.271    -890.500
  H     -455.088     513.318    -888.780
  H     -454.056     512.003    -889.390
  P     -455.986     510.858    -891.110
  C     -455.727     512.837    -892.790
  O     -456.456     511.679    -892.420
  C     -455.831     513.053    -894.300
  O     -455.245     511.935    -895.020
  C     -457.285     513.172    -894.810
  O     -457.804     514.464    -894.620
  C     -457.057     512.876    -896.290
  O     -456.522     514.041    -896.960
  C     -456.000     511.743    -896.240
  N     -458.994     508.483    -898.840
  C     -458.613     509.766    -899.050
  N     -457.829     510.576    -898.330
  C     -457.408     509.917    -897.230
  C     -457.690     508.635    -896.830
  C     -458.525     507.885    -897.720
  N     -458.909     506.575    -897.470
  N     -457.089     508.320    -895.650
  C     -456.413     509.407    -895.320
  N     -456.603     510.409    -896.240
  O     -457.217     509.878    -890.840
  O     -454.689     510.123    -891.270
  H     -456.416     513.798    -897.900
  H     -457.084     509.026    -891.320
  H     -459.021     510.208    -900.000
  H     -455.806     509.518    -894.420
  H     -455.287     511.781    -897.090
  H     -457.979     512.609    -896.810
  H     -457.925     512.398    -894.380
  H     -455.274     513.966    -894.560
  H     -454.661     512.705    -892.520
  H     -459.653     506.205    -898.050
  H     -458.695     506.207    -896.560
  H     -456.127     513.697    -892.240
  P     -459.146     514.584    -893.740
  C     -460.601     512.711    -894.810
  O     -460.362     514.119    -894.680
  O     -459.362     516.189    -893.610
  O     -459.075     513.935    -892.370
  H     -459.861     516.418    -892.800
  H     -461.435     512.549    -895.461
  H     -460.814     512.295    -893.847
  H     -459.732     512.238    -895.219

 6  7  8  9  10  11  12  13  14  15  25  28  32  33  34  35 0
 6-311+G(2d,p)
 ****
 36  39  40 0
 6-311+G(2d,p)
 ****
 1  2  3  4  5  16  17  18  19  20  21  22  23  24 0
 3-21G
 ****
 26  27  29  30  31  37  38  41  42  43  44  45  46  47 0
 3-21G
 ****
 48 0
 3-21G
 ****


