%nproc=1
%NoSave
%Mem=1900MB
#P OB98/GEN NMR

erre ene a

0 1
  C      334.266      41.584     816.253
  O      335.530      41.087     815.874
  H      333.680      41.786     815.360
  H      334.380      42.514     816.823
  H      333.725      40.838     816.861
  P      336.557      40.738     817.064
  C      337.068      43.162     817.854
  O      336.408      41.935     818.137
  C      337.820      43.655     819.096
  O      336.892      44.067     820.119
  C      338.745      42.623     819.729
  O      340.005      42.571     819.055
  C      338.861      43.159     821.156
  O      339.821      44.230     821.229
  C      337.437      43.679     821.406
  N      335.339      42.295     825.793
  C      336.143      43.386     825.497
  N      336.486      44.184     826.526
  N      336.585      43.643     824.291
  C      336.188      42.739     823.366
  C      335.383      41.631     823.540
  C      334.872      41.363     824.865
  O      334.102      40.467     825.187
  N      335.203      40.957     822.351
  C      335.926      41.637     821.480
  N      336.562      42.703     822.047
  O      337.991      41.004     816.413
  O      336.447      39.362     817.621
  H      339.786      44.630     822.112
  H      338.646      40.406     816.822
  H      335.013      42.163     826.729
  H      336.017      41.393     820.422
  H      337.441      44.573     822.043
  H      339.188      42.386     821.846
  H      336.454      43.860     827.484
  H      338.262      41.628     819.742
  H      337.089      44.966     826.322
  H      338.394      44.553     818.788
  H      336.326      43.909     817.559
  H      337.779      43.011     817.023
  P      340.655      41.135     818.814
  C      342.311      41.000     820.807
  O      341.078      40.573     820.260
  O      342.059      41.463     818.115
  O      339.827      40.199     817.975
  H      342.420      40.662     817.679
  H      342.453      40.545     821.765
  H      342.304      42.064     820.915
  H      343.109      40.713     820.154

 6  7  8  9  10  11  12  13  14  15  26  29  33  34 0
 6-311+G(2d,p)
 ****
 36  38  39  40  41 0
 6-311+G(2d,p)
 ****
 1  2  3  4  5  16  17  18  19  20  21  22  23  24  25 0
 3-21G
 ****
 27  28  30  31  32  35  37  42  43  44  45  46  47 0
 3-21G
 ****
 48  49 0
 3-21G
 ****


