%nproc=1
%NoSave
%Mem=1900MB
#P OB98/GEN NMR

erre ene a

0 1
  C     -272.182    -690.811     273.579
  O     -273.048    -691.936     273.515
  P     -272.473    -693.278     272.831
  C     -271.820    -693.966     270.410
  O     -272.396    -692.982     271.261
  C     -272.626    -694.084     269.117
  O     -272.655    -692.828     268.414
  C     -272.048    -695.092     268.120
  O     -272.411    -696.423     268.432
  C     -272.731    -694.639     266.834
  O     -274.073    -695.156     266.783
  C     -272.736    -693.112     266.995
  N     -271.414    -690.542     262.833
  C     -272.672    -690.876     263.304
  N     -273.717    -690.524     262.527
  N     -272.888    -691.490     264.450
  C     -271.741    -691.801     265.105
  C     -270.442    -691.510     264.754
  C     -270.221    -690.837     263.488
  O     -269.134    -690.563     262.996
  N     -269.550    -691.970     265.692
  C     -270.310    -692.510     266.631
  N     -271.638    -692.468     266.298
  O     -273.700    -694.302     272.956
  O     -271.224    -693.813     273.449
  H     -273.991    -696.124     266.671
  H     -273.382    -695.211     272.821
  H     -271.311    -690.070     261.963
  H     -269.935    -692.968     267.533
  H     -273.675    -692.669     266.632
  H     -272.212    -695.002     265.939
  H     -273.617    -690.103     261.617
  H     -270.961    -694.973     268.024
  H     -274.651    -690.806     262.817
  H     -273.654    -694.357     269.381
  H     -271.814    -694.922     270.928
  H     -270.786    -693.680     270.192
  P     -271.372    -697.574     268.002
  C     -270.257    -698.225     265.755
  O     -271.204    -697.419     266.416
  O     -272.221    -698.920     268.186
  O     -270.112    -697.586     268.807
  H     -271.640    -699.676     268.350
  H     -270.452    -698.197     264.679
  H     -270.321    -699.266     266.089
  H     -269.242    -697.851     265.938
  H     -272.689    -689.997     274.054
  H     -271.896    -690.524     272.589
  H     -271.309    -691.065     274.143

 3  4  5  6  7  8  9  10  11  12  23  26  30  31 0
 6-311+G(2d,p)
 ****
 33  35  36  37  38 0
 6-311+G(2d,p)
 ****
 1  2  13  14  15  16  17  18  19  20  21  22  24  25 0
 3-21G
 ****
 27  28  29  32  34  39  40  41  42  43  44  45  46  47  48  49 0
 3-21G
 ****


