%nproc=1
%NoSave
%Mem=1900MB
#P OB98/GEN NMR

erre ene a

0 1
  C      -71.206     -42.033     -93.675
  O      -72.299     -42.462     -94.492
  P      -72.603     -44.038     -94.533
  C      -74.962     -43.807     -95.576
  O      -73.646     -44.321     -95.721
  C      -75.799     -44.046     -96.838
  O      -75.400     -43.137     -97.905
  C      -75.676     -45.467     -97.397
  O      -76.939     -45.818     -97.975
  C      -74.658     -45.310     -98.509
  O      -74.725     -46.389     -99.439
  C      -75.058     -43.940     -99.053
  N      -72.731     -43.809    -103.596
  C      -73.773     -44.533    -103.134
  N      -74.320     -44.525    -101.898
  C      -73.703     -43.622    -101.117
  C      -72.622     -42.820    -101.444
  C      -72.126     -42.938    -102.753
  N      -71.048     -42.222    -103.216
  N      -72.237     -42.059    -100.358
  C      -73.070     -42.401     -99.395
  N      -73.991     -43.317     -99.813
  O      -73.467     -44.277     -93.207
  O      -71.377     -44.889     -94.546
  H      -74.679     -47.230     -98.935
  H      -72.933     -44.752     -92.543
  H      -74.227     -45.214    -103.851
  H      -73.045     -42.023     -98.384
  H      -75.935     -43.991     -99.711
  H      -73.646     -45.283     -98.087
  H      -75.381     -46.223     -96.663
  H      -76.849     -43.834     -96.602
  H      -74.925     -42.733     -95.370
  H      -70.736     -42.387    -104.160
  H      -70.560     -41.604    -102.585
  H      -75.430     -44.263     -94.697
  P      -77.746     -47.006     -97.264
  C      -80.042     -45.823     -97.505
  O      -79.240     -46.940     -97.838
  O      -77.897     -46.508     -95.751
  O      -77.075     -48.339     -97.352
  H      -77.996     -47.273     -95.153
  H      -80.616     -45.526     -98.388
  H      -79.445     -44.970     -97.168
  H      -80.736     -46.108     -96.710
  H      -71.112     -40.969     -93.736
  H      -70.302     -42.491     -94.019
  H      -71.387     -42.318     -92.659

 3  4  5  6  7  8  9  10  11  12  22  25  29  30  31  32 0
 6-311+G(2d,p)
 ****
 33  36  37 0
 6-311+G(2d,p)
 ****
 1  2  13  14  15  16  17  18  19  20  21  23  24  26 0
 3-21G
 ****
 27  28  34  35  38  39  40  41  42  43  44  45  46  47  48 0
 3-21G
 ****


