%nproc=1
%NoSave
%Mem=1900MB
#P OB98/GEN NMR

erre ene a

0 1
  C      -41.928      25.162      34.295
  O      -42.312      23.902      33.785
  H      -40.967      25.439      33.854
  H      -41.818      25.123      35.381
  H      -42.667      25.922      34.023
  P      -43.639      23.217      34.365
  C      -42.590      20.855      34.432
  O      -43.608      21.685      33.895
  C      -42.597      19.477      33.758
  O      -43.906      18.868      33.947
  C      -42.331      19.526      32.244
  O      -41.687      18.298      31.884
  C      -43.743      19.571      31.695
  O      -43.771      19.291      30.318
  C      -44.438      18.582      32.636
  N      -45.887      18.696      32.597
  C      -46.542      17.924      31.634
  O      -45.897      17.208      30.868
  N      -47.907      18.006      31.541
  C      -48.555      18.835      32.297
  N      -49.906      18.879      32.144
  C      -47.896      19.712      33.286
  C      -46.573      19.588      33.386
  O      -44.917      23.933      34.081
  O      -43.365      23.117      35.940
  H      -44.686      19.086      30.020
  H      -43.884      23.797      36.408
  H      -48.479      20.401      33.879
  H      -46.000      20.190      34.084
  H      -44.163      17.549      32.388
  H      -44.172      20.570      31.819
  H      -41.716      20.378      31.946
  H      -41.870      18.833      34.267
  H      -50.315      18.268      31.447
  H      -42.783      20.747      35.503
  H      -50.511      19.499      32.661
  H      -41.610      21.324      34.297
  P      -40.095      18.108      31.914
  C      -39.019      16.534      30.176
  O      -39.727      16.633      31.408
  O      -39.463      18.480      33.217
  O      -39.543      19.050      30.741
  H      -38.656      19.374      30.983
  H      -38.836      15.504      29.952
  H      -38.087      17.053      30.258
  H      -39.603      16.971      29.393

 6  7  8  9  10  11  12  13  14  15  16  26  30  31  32  33  35 0
 6-311+G(2d,p)
 ****
 37  38 0
 6-311+G(2d,p)
 ****
 1  2  3  4  5  17  18  19  20  21  22  23  24  25 0
 3-21G
 ****
 27  28  29  34  36  39  40  41  42  43  44  45  46 0
 3-21G
 ****


