%nproc=1
%NoSave
%Mem=1900MB
#P OB98/GEN NMR

erre ene a

0 1
  C      -23.922      39.839     -65.271
  O      -24.750      38.914     -65.949
  H      -22.990      39.947     -65.830
  H      -23.687      39.478     -64.266
  H      -24.410      40.815     -65.212
  P      -26.168      38.545     -65.306
  C      -25.240      36.148     -65.059
  O      -26.334      36.958     -65.471
  C      -24.514      35.582     -66.276
  O      -23.304      34.912     -65.873
  C      -25.325      34.562     -67.073
  O      -26.231      35.215     -67.945
  C      -24.212      33.845     -67.819
  O      -23.760      34.661     -68.917
  C      -23.114      33.761     -66.742
  N      -22.605      28.713     -66.707
  C      -22.634      29.592     -67.772
  N      -22.546      29.046     -69.003
  N      -22.752      30.888     -67.642
  C      -22.902      31.286     -66.358
  C      -22.907      30.510     -65.222
  C      -22.708      29.083     -65.375
  O      -22.652      28.272     -64.455
  N      -23.177      31.256     -64.103
  C      -23.282      32.490     -64.557
  N      -23.132      32.562     -65.923
  O      -27.341      39.333     -65.804
  O      -25.947      38.726     -63.732
  H      -23.562      35.544     -68.555
  H      -26.188      39.626     -63.444
  H      -22.520      27.723     -66.869
  H      -23.461      33.366     -63.946
  H      -22.109      33.836     -67.172
  H      -24.529      32.888     -68.237
  H      -22.604      28.053     -69.173
  H      -25.829      33.847     -66.415
  H      -22.624      29.670     -69.797
  H      -24.216      36.426     -66.911
  H      -25.644      35.337     -64.445
  H      -24.540      36.730     -64.453
  P      -27.732      34.680     -68.151
  C      -27.481      35.542     -70.577
  O      -28.297      35.480     -69.420
  O      -28.592      34.749     -66.938
  O      -27.549      33.208     -68.742
  H      -27.424      32.523     -68.038
  H      -27.983      36.103     -71.338
  H      -27.290      34.551     -70.932
  H      -26.554      36.019     -70.335

 6  7  8  9  10  11  12  13  14  15  26  29  33  34 0
 6-311+G(2d,p)
 ****
 36  38  39  40  41 0
 6-311+G(2d,p)
 ****
 1  2  3  4  5  16  17  18  19  20  21  22  23  24  25 0
 3-21G
 ****
 27  28  30  31  32  35  37  42  43  44  45  46  47 0
 3-21G
 ****
 48  49 0
 3-21G
 ****


