%nproc=1
%NoSave
%Mem=1900MB
#P OB98/GEN NMR

erre ene a

0 1
  C      -61.218    -109.609     175.458
  O      -61.246    -110.444     174.320
  H      -61.654    -110.152     176.299
  H      -61.806    -108.705     175.284
  H      -60.189    -109.342     175.713
  P      -60.714    -109.862     172.923
  C      -62.784    -108.428     172.355
  O      -61.408    -108.429     172.724
  C      -63.013    -107.482     171.172
  O      -64.442    -107.434     170.913
  C      -62.530    -106.054     171.458
  O      -61.650    -105.552     170.453
  C      -63.824    -105.290     171.718
  O      -63.751    -103.906     171.445
  C      -64.853    -106.054     170.881
  N      -66.224    -105.916     171.361
  C      -67.104    -105.164     170.586
  O      -66.816    -104.615     169.526
  N      -68.379    -105.049     171.080
  C      -68.848    -105.586     172.245
  O      -70.000    -105.455     172.630
  C      -67.866    -106.351     173.032
  C      -66.621    -106.476     172.562
  O      -60.833    -110.782     171.755
  O      -59.186    -109.482     173.219
  H      -64.597    -103.507     171.738
  H      -58.600    -110.146     172.803
  H      -69.027    -104.518     170.520
  H      -68.198    -106.782     173.971
  H      -65.871    -107.035     173.118
  H      -64.834    -105.718     169.842
  H      -64.079    -105.398     172.781
  H      -61.913    -106.026     172.366
  H      -62.533    -107.903     170.281
  H      -63.365    -108.098     173.225
  H      -63.094    -109.442     172.087
  P      -60.059    -105.690     170.473
  C      -59.536    -103.343     171.543
  O      -59.483    -104.762     171.641
  O      -59.381    -105.601     169.145
  O      -59.811    -107.176     171.044
  H      -58.992    -107.505     170.624
  H      -59.103    -102.909     172.420
  H      -60.555    -103.029     171.456
  H      -58.990    -103.024     170.680

 6  7  8  9  10  11  12  13  14  15  16  26  31  32  33  34  35 0
 6-311+G(2d,p)
 ****
 36  37 0
 6-311+G(2d,p)
 ****
 1  2  3  4  5  17  18  19  20  21  22  23  24  25 0
 3-21G
 ****
 27  28  29  30  38  39  40  41  42  43  44  45 0
 3-21G
 ****


