%nproc=1
%NoSave
%Mem=1900MB
#P OB98/GEN NMR

erre ene a

0 1
  C       73.106    -684.570     617.049
  O       73.115    -685.023     615.690
  P       73.010    -683.888     614.564
  C       75.210    -684.700     613.378
  O       74.491    -683.624     614.008
  C       76.614    -684.256     612.971
  O       77.423    -683.967     614.118
  C       77.396    -685.312     612.206
  O       77.021    -685.362     610.824
  C       78.817    -684.801     612.340
  O       79.057    -683.782     611.367
  C       78.807    -684.197     613.758
  N       82.398    -684.587     617.321
  C       82.075    -683.525     616.501
  N       82.805    -682.384     616.673
  N       81.142    -683.558     615.603
  C       80.464    -684.762     615.563
  C       80.721    -685.897     616.322
  C       81.764    -685.839     617.294
  O       82.122    -686.768     618.030
  N       79.810    -686.895     615.997
  C       79.047    -686.373     615.074
  N       79.417    -685.073     614.761
  O       72.685    -682.551     615.393
  O       71.968    -684.162     613.529
  H       78.477    -683.024     611.575
  H       72.204    -681.905     614.845
  H       83.158    -684.508     618.009
  H       78.221    -686.866     614.606
  H       79.325    -683.230     613.799
  H       79.573    -685.581     612.185
  H       83.496    -682.260     617.388
  H       77.295    -686.317     612.672
  H       82.562    -681.584     616.090
  H       76.527    -683.350     612.366
  H       74.655    -685.044     612.489
  H       75.239    -685.558     614.079
  P       75.956    -686.501     610.372
  C       74.010    -684.783     610.102
  O       74.510    -685.930     610.774
  O       76.227    -687.687     611.447
  O       76.110    -686.977     608.966
  H       76.037    -688.539     611.060
  H       74.223    -684.801     609.037
  H       74.501    -683.873     610.553
  H       72.949    -684.694     610.273
  H       73.181    -685.411     617.706
  H       72.194    -684.045     617.244
  H       73.936    -683.915     617.212

 3  4  5  6  7  8  9  10  11  12  23  26  30  31  33  0
 6-311+G(2d,p)
 ****
 35  36  37  38 0
 6-311+G(2d,p)
 ****
 1  2  13  14  15  16  17  18  19  20  21  22  24  25  27  28  29 0
 3-21G
 ****
 32  34  39  40  41  42  43  44  45  46  47  48  49 0
 3-21G
 ****


