%nproc=1
%NoSave
%Mem=1900MB
#P OB98/GEN NMR

erre ene a

0 1
  C      123.556    -930.817    -219.113
  O      122.675    -930.227    -218.182
  H      124.576    -930.734    -218.727
  H      123.498    -930.278    -220.067
  H      123.329    -931.876    -219.270
  P      121.124    -930.602    -218.255
  C      120.972    -931.074    -215.714
  O      120.777    -931.590    -217.029
  C      121.649    -932.097    -214.800
  O      122.976    -932.368    -215.277
  C      121.783    -931.586    -213.361
  O      120.652    -931.836    -212.536
  C      123.008    -932.372    -212.880
  O      122.624    -933.639    -212.317
  C      123.841    -932.554    -214.144
  N      128.642    -931.565    -212.720
  C      127.783    -932.548    -212.235
  N      128.253    -933.309    -211.240
  N      126.564    -932.716    -212.690
  C      126.205    -931.798    -213.624
  C      126.970    -930.798    -214.161
  C      128.335    -930.651    -213.710
  O      129.137    -929.828    -214.110
  N      126.249    -930.044    -215.077
  C      125.045    -930.545    -215.004
  N      124.984    -931.665    -214.216
  O      121.035    -931.587    -219.522
  O      120.183    -929.442    -218.414
  H      122.402    -934.246    -213.048
  H      120.168    -931.488    -219.948
  H      129.581    -931.511    -212.336
  H      124.175    -930.170    -215.544
  H      124.232    -933.587    -214.205
  H      123.520    -931.823    -212.077
  H      129.140    -933.164    -210.775
  H      122.043    -930.521    -213.350
  H      127.593    -933.898    -210.721
  H      121.088    -933.040    -214.829
  H      119.970    -930.829    -215.334
  H      121.549    -930.147    -215.750
  P      120.039    -930.684    -211.618
  C      117.571    -930.179    -212.367
  O      118.957    -929.890    -212.467
  O      121.256    -929.634    -211.493
  O      119.536    -931.126    -210.277
  H      121.721    -929.757    -210.661
  H      117.024    -929.532    -213.020
  H      117.247    -930.026    -211.359
  H      117.398    -931.197    -212.647

 6  7  8  9  10  11  12  13  14  15  26  29  33  34 0
 6-311+G(2d,p)
 ****
 36  38  39  40  41 0
 6-311+G(2d,p)
 ****
 1  2  3  4  5  16  17  18  19  20  21  22  23  24  25 0
 3-21G
 ****
 27  28  30  31  32  35  37  42  43  44  45  46  47 0
 3-21G
 ****
 48  49 0
 3-21G
 ****


