%nproc=1
%NoSave
%Mem=1900MB
#P OB98/GEN NMR

erre ene a

0 1
  C      166.330    -268.366     127.589
  O      166.840    -267.533     126.546
  P      168.309    -266.911     126.687
  C      167.629    -264.665     127.755
  O      168.326    -265.889     127.925
  C      168.566    -263.462     127.960
  O      167.846    -262.229     127.687
  C      169.124    -263.375     129.388
  O      170.545    -263.232     129.426
  C      168.326    -262.248     130.016
  O      168.991    -261.640     131.113
  C      168.012    -261.349     128.811
  N      166.825    -260.516     129.045
  C      166.409    -259.711     127.992
  O      167.028    -259.618     126.933
  N      165.284    -258.962     128.216
  C      164.600    -258.883     129.393
  O      163.625    -258.159     129.560
  C      165.124    -259.707     130.493
  C      166.195    -260.472     130.269
  O      168.917    -266.389     125.429
  O      169.166    -268.146     127.255
  H      168.376    -260.992     131.528
  H      170.046    -268.123     126.831
  H      164.959    -258.385     127.454
  H      164.621    -259.653     131.446
  H      166.609    -261.080     131.066
  H      168.845    -260.671     128.603
  H      167.385    -262.661     130.399
  H      168.939    -264.304     129.945
  H      169.380    -263.558     127.236
  H      166.815    -264.606     128.477
  H      167.158    -264.648     126.763
  P      171.553    -264.336     129.996
  C      171.842    -263.285     132.348
  O      171.394    -264.391     131.585
  O      172.959    -264.243     129.508
  O      170.890    -265.715     129.513
  H      171.595    -266.323     129.222
  H      172.011    -263.615     133.376
  H      171.077    -262.507     132.347
  H      172.780    -262.881     131.950
  H      165.344    -268.693     127.334
  H      166.297    -267.812     128.504
  H      166.968    -269.217     127.710

 3  4  5  6  7  8  9  10  11  12  13  23  28  29  30  31  32 0
 6-311+G(2d,p)
 ****
 33  34 0
 6-311+G(2d,p)
 ****
 1  2  14  15  16  17  18  19  20  21  22  24  25  26  27 0
 3-21G
 ****
 35  36  37  38  39  40  41  42  43  44  45 0
 3-21G
 ****


