%nproc=1
%NoSave
%Mem=1900MB
#P OB98/GEN NMR

erre ene a

0 1
  C       24.972    -366.086     380.374
  O       24.265    -367.157     380.972
  H       24.640    -365.985     379.338
  H       26.045    -366.289     380.388
  H       24.759    -365.159     380.909
  P       24.631    -367.501     382.496
  C       22.247    -366.894     383.271
  O       23.632    -366.579     383.358
  C       21.407    -365.797     383.934
  O       21.850    -364.511     383.426
  C       19.909    -365.921     383.641
  O       19.167    -365.555     384.811
  C       19.675    -364.885     382.549
  O       18.328    -364.421     382.525
  C       20.709    -363.819     382.905
  N       20.319    -359.225     380.718
  C       19.960    -359.676     381.937
  N       20.120    -360.921     382.454
  C       20.752    -361.716     381.567
  C       21.178    -361.393     380.296
  C       20.926    -360.080     379.862
  N       21.268    -359.616     378.609
  N       21.755    -362.496     379.685
  C       21.686    -363.458     380.585
  N       21.077    -363.036     381.741
  O       26.075    -367.386     382.857
  O       23.991    -368.958     382.665
  H       17.739    -365.202     382.606
  H       23.100    -369.003     382.270
  H       19.482    -358.952     382.590
  H       22.053    -364.468     380.450
  H       20.344    -363.117     383.668
  H       19.900    -365.332     381.571
  H       19.623    -366.922     383.324
  H       21.603    -365.803     385.012
  H       22.046    -367.855     383.762
  H       21.065    -358.649     378.391
  H       21.742    -360.236     377.972
  H       21.987    -366.987     382.211
  P       18.690    -366.714     385.794
  C       19.994    -365.937     387.882
  O       19.826    -366.964     386.907
  O       18.154    -367.952     385.146
  O       17.539    -365.990     386.649
  H       16.818    -366.635     386.822
  H       20.772    -366.215     388.562
  H       19.079    -365.804     388.421
  H       20.257    -365.022     387.394

 6  7  8  9  10  11  12  13  14  15  25  28  32  33  34  35 0
 6-311+G(2d,p)
 ****
 36  39  40 0
 6-311+G(2d,p)
 ****
 1  2  3  4  5  16  17  18  19  20  21  22  23  24 0
 3-21G
 ****
 26  27  29  30  31  37  38  41  42  43  44  45  46  47 0
 3-21G
 ****
 48 0
 3-21G
 ****


