%nproc=1
%NoSave
%Mem=1900MB
#P OB98/GEN NMR

erre ene a

0 1
  C     -103.397     179.710     -67.700
  O     -102.639     179.124     -68.772
  P     -102.155     180.055     -69.989
  C     -103.879     179.090     -71.704
  O     -103.374     180.226     -71.020
  C     -104.965     179.513     -72.699
  O     -106.025     180.223     -72.020
  C     -104.482     180.464     -73.786
  O     -103.751     179.789     -74.794
  C     -105.802     181.045     -74.282
  O     -106.429     180.165     -75.230
  C     -106.626     181.120     -72.981
  N     -106.727     182.477     -72.454
  C     -107.309     183.422     -73.290
  O     -107.675     183.174     -74.437
  N     -107.428     184.684     -72.772
  C     -106.969     185.099     -71.554
  O     -107.088     186.250     -71.154
  C     -106.288     184.074     -70.749
  C     -106.196     182.834     -71.231
  O     -101.178     179.070     -70.794
  O     -101.442     181.309     -69.604
  H     -105.768     179.992     -75.930
  H     -100.503     179.594     -71.265
  H     -107.875     185.378     -73.349
  H     -105.889     184.367     -69.787
  H     -105.696     182.065     -70.647
  H     -107.639     180.738     -73.154
  H     -105.671     182.012     -74.778
  H     -103.883     181.265     -73.341
  H     -105.394     178.606     -73.144
  H     -104.311     178.393     -70.980
  H     -103.055     178.591     -72.225
  P     -102.149     179.889     -74.711
  C     -102.146     182.260     -75.811
  O     -101.825     181.458     -74.695
  O     -101.737     179.391     -76.176
  O     -101.571     179.085     -73.594
  H     -102.390     179.652     -76.849
  H     -103.050     181.908     -76.314
  H     -101.309     182.249     -76.517
  H     -102.308     183.286     -75.470
  H     -103.636     178.957     -66.979
  H     -104.301     180.130     -68.090
  H     -102.818     180.480     -67.233

 3  4  5  6  7  8  9  10  11  12  13  23  28  29  30  31  32 0
 6-311+G(2d,p)
 ****
 33  34 0
 6-311+G(2d,p)
 ****
 1  2  14  15  16  17  18  19  20  21  22  24  25  26 0
 3-21G
 ****
 27  35  36  37  38  39  40  41  42  43  44  45 0
 3-21G
 ****


