%nproc=1
%NoSave
%Mem=1900MB
#P OB98/GEN NMR

erre ene a

0 1
  C     -892.399    -342.437      69.486
  O     -892.499    -343.219      68.304
  H     -892.469    -343.105      70.347
  H     -893.229    -341.725      69.511
  H     -891.449    -341.907      69.529
  P     -892.139    -342.539      66.895
  C     -894.449    -341.366      66.928
  O     -893.039    -341.206      66.803
  C     -895.169    -340.042      66.657
  O     -894.889    -339.637      65.271
  C     -896.709    -340.129      66.798
  O     -897.159    -338.836      67.257
  C     -897.109    -340.362      65.362
  O     -898.499    -340.165      65.176
  C     -896.159    -339.404      64.637
  N     -896.079    -339.629      63.202
  C     -896.919    -338.879      62.391
  O     -897.699    -338.028      62.818
  N     -896.839    -339.145      61.046
  C     -896.039    -340.071      60.466
  O     -895.989    -340.250      59.242
  C     -895.199    -340.863      61.373
  C     -895.249    -340.614      62.679
  O     -892.209    -343.438      65.706
  O     -890.659    -341.969      67.109
  H     -890.009    -342.593      66.743
  H     -898.779    -340.500      64.298
  H     -897.439    -338.597      60.446
  H     -894.559    -341.640      60.941
  H     -894.649    -341.171      63.389
  H     -896.429    -338.368      64.829
  H     -896.919    -341.405      65.078
  H     -897.029    -340.894      67.505
  H     -894.739    -339.266      67.299
  H     -894.659    -341.696      67.957
  H     -894.789    -342.139      66.217
  P     -897.339    -338.474      68.801
  C     -899.489    -339.813      69.319
  O     -898.089    -339.662      69.564
  O     -897.979    -337.143      69.039
  O     -895.849    -338.502      69.425
  H     -895.779    -337.804      70.099
  H     -899.863    -340.638      69.888
  H     -899.651    -339.995      68.277
  H     -900.000    -338.919      69.609

 6  7  8  9  10  11  12  13  14  15  16  27  31  32  33  34  35 0
 6-311+G(2d,p)
 ****
 36  37 0
 6-311+G(2d,p)
 ****
 1  2  3  4  5  17  18  19  20  21  22  23  24  25 0
 3-21G
 ****
 26  28  29  30  38  39  40  41  42  43  44  45 0
 3-21G
 ****


