%nproc=1
%NoSave
%Mem=1900MB
#P OB98/GEN NMR

erre ene a

0 1
  C       75.879      58.496     114.851
  O       77.051      59.177     115.271
  P       78.424      59.013     114.460
  C       79.299      57.263     116.130
  O       78.966      57.534     114.773
  C       80.194      56.029     116.229
  O       79.492      54.898     115.662
  C       81.513      56.173     115.477
  O       82.539      55.497     116.212
  C       81.289      55.425     114.173
  O       82.527      54.947     113.628
  C       80.311      54.331     114.622
  N       79.137      50.447     111.468
  C       80.042      50.553     112.469
  N       80.321      51.623     113.248
  C       79.503      52.646     112.947
  C       78.530      52.687     111.959
  C       78.359      51.519     111.193
  N       77.425      51.412     110.185
  N       77.914      53.927     111.928
  C       78.492      54.607     112.892
  N       79.452      53.877     113.543
  O       79.421      60.099     114.683
  O       77.979      58.921     112.927
  H       82.849      54.241     114.225
  H       78.617      59.392     112.357
  H       80.628      49.660     112.665
  H       78.265      55.632     113.150
  H       80.837      53.464     115.035
  H       80.830      56.097     113.439
  H       81.797      57.219     115.313
  H       80.369      55.810     117.289
  H       78.373      57.081     116.684
  H       77.291      50.501     109.773
  H       76.733      52.145     110.096
  H       79.795      58.138     116.565
  P       83.766      56.413     116.713
  C       84.841      56.289     114.346
  O       84.333      57.098     115.381
  O       84.732      55.646     117.552
  O       82.985      57.581     117.487
  H       82.067      57.684     117.152
  H       85.215      56.935     113.543
  H       84.050      55.656     113.937
  H       85.664      55.668     114.712
  H       75.073      58.731     115.515
  H       76.056      57.441     114.864
  H       75.625      58.803     113.858

 3  4  5  6  7  8  9  10  11  12  22  25  29  30  31  32 0
 6-311+G(2d,p)
 ****
 33  36  37 0
 6-311+G(2d,p)
 ****
 1  2  13  14  15  16  17  18  19  20  21  23  24  26 0
 3-21G
 ****
 27  28  34  35  38  39  40  41  42  43  44  45  46  47  48 0
 3-21G
 ****


