%nproc=1
%NoSave
%Mem=1900MB
#P OB98/GEN NMR

erre ene a

0 1
  C       43.381     228.639      64.648
  O       42.077     228.584      65.196
  P       41.814     227.516      66.366
  C       39.347     227.370      65.558
  O       40.239     227.561      66.653
  C       37.899     227.492      66.024
  O       37.611     226.477      67.002
  C       37.573     228.814      66.696
  O       37.406     229.833      65.733
  C       36.298     228.459      67.453
  O       35.141     228.617      66.615
  C       36.520     226.973      67.813
  N       36.779     226.773      69.230
  C       35.653     226.797      70.064
  O       34.534     226.996      69.584
  N       35.832     226.631      71.414
  C       37.027     226.467      71.890
  N       37.144     226.304      73.236
  C       38.240     226.457      71.048
  C       38.045     226.620      69.741
  O       42.450     228.222      67.651
  O       42.392     226.161      66.116
  H       35.081     229.575      66.425
  H       42.729     227.559      68.310
  H       39.213     226.314      71.494
  H       38.881     226.627      69.051
  H       35.639     226.379      67.542
  H       36.150     229.104      68.324
  H       38.360     229.087      67.408
  H       37.243     227.326      65.157
  H       36.294     226.321      73.787
  H       39.501     226.373      65.134
  H       38.026     226.145      73.700
  H       39.570     228.114      64.786
  P       38.534     230.968      65.646
  C       36.901     232.897      66.077
  O       37.761     232.278      65.142
  O       39.347     230.533      64.332
  O       39.426     231.136      66.828
  H       40.132     231.100      64.225
  H       36.565     233.853      65.669
  H       37.429     233.082      67.018
  H       36.029     232.265      66.258
  H       43.416     229.388      63.884
  H       43.631     227.688      64.227
  H       44.082     228.883      65.419

 3  4  5  6  7  8  9  10  11  12  13  21  23  27  28  29  30  32 0
 6-311+G(2d,p)
 ****
 34  35 0
 6-311+G(2d,p)
 ****
 1  2  14  15  16  17  18  19  20  22  24  25  26 0
 3-21G
 ****
 31  33  36  37  38  39  40  41  42  43  44  45  46 0
 3-21G
 ****


