%nproc=1
%NoSave
%Mem=1900MB
#P OB98/GEN NMR

erre ene a

0 1
  C       69.553    -142.514      -5.605
  O       68.473    -143.456      -5.597
  P       67.007    -143.121      -6.159
  C       66.247    -145.448      -6.970
  O       66.071    -144.416      -6.008
  C       67.235    -146.514      -6.486
  O       66.901    -146.929      -5.126
  C       67.275    -147.785      -7.355
  O       68.644    -148.198      -7.414
  C       66.435    -148.753      -6.535
  O       66.634    -150.111      -6.878
  C       66.900    -148.373      -5.126
  N       66.080    -148.888      -4.034
  C       66.497    -150.069      -3.411
  O       67.485    -150.688      -3.799
  N       65.760    -150.545      -2.350
  C       64.704    -149.910      -1.954
  N       64.028    -150.431      -0.895
  C       64.218    -148.677      -2.595
  C       64.949    -148.226      -3.614
  O       67.011    -142.551      -7.541
  O       66.382    -142.074      -5.122
  H       65.827    -141.434      -5.608
  H       66.073    -150.654      -6.294
  H       63.336    -148.174      -2.228
  H       64.674    -147.306      -4.122
  H       67.938    -148.694      -4.987
  H       65.378    -148.521      -6.694
  H       66.909    -147.630      -8.374
  H       68.231    -146.056      -6.437
  H       64.397    -151.275      -0.473
  H       66.632    -145.001      -7.891
  H       63.198    -150.015      -0.499
  H       65.273    -145.901      -7.189
  P       69.438    -148.115      -8.805
  C       71.753    -147.552      -7.753
  O       70.976    -148.458      -8.507
  O       69.499    -146.530      -9.055
  O       68.801    -148.796      -9.972
  H       69.584    -146.361     -10.010
  H       72.339    -148.117      -7.022
  H       71.140    -146.821      -7.219
  H       72.437    -147.025      -8.423
  H       70.425    -142.967      -5.181
  H       69.281    -141.655      -5.028
  H       69.760    -142.217      -6.612

 3  4  5  6  7  8  9  10  11  12  13  24  27  28  29  30  32 0
 6-311+G(2d,p)
 ****
 34  35 0
 6-311+G(2d,p)
 ****
 1  2  14  15  16  17  18  19  20  21  22  23  25  26 0
 3-21G
 ****
 31  33  36  37  38  39  40  41  42  43  44  45  46 0
 3-21G
 ****


