%nproc=1
%NoSave
%Mem=1900MB
#P OB98/GEN NMR

erre ene a

0 1
  C      240.086     861.373     371.578
  O      239.623     862.632     371.133
  H      239.541     860.572     371.067
  H      241.146     861.279     371.338
  H      239.949     861.282     372.660
  P      238.069     862.955     371.350
  C      238.267     865.533     371.131
  O      237.756     864.329     370.566
  C      238.332     866.617     370.060
  O      239.444     866.319     369.172
  C      237.057     866.755     369.203
  O      236.541     868.088     369.296
  C      237.536     866.524     367.779
  O      236.926     867.401     366.836
  C      239.045     866.751     367.866
  N      241.156     867.094     363.241
  C      240.872     868.037     364.165
  N      240.410     867.867     365.421
  C      240.260     866.559     365.712
  C      240.531     865.488     364.870
  C      240.976     865.792     363.573
  N      241.211     864.832     362.614
  N      240.243     864.292     365.504
  C      239.775     864.643     366.686
  N      239.747     866.009     366.846
  O      237.991     863.370     372.897
  O      237.138     861.833     371.042
  H      237.407     867.293     365.995
  H      237.262     862.902     373.331
  H      241.034     869.066     363.857
  H      239.387     863.962     367.447
  H      239.306     867.813     367.760
  H      237.308     865.485     367.494
  H      236.284     866.027     369.474
  H      238.566     867.574     370.554
  H      239.269     865.353     371.526
  H      241.417     865.152     361.682
  H      240.980     863.874     362.825
  H      237.621     865.840     371.965
  P      236.034     868.565     370.755
  C      236.586     871.112     370.626
  O      235.585     870.094     370.626
  O      237.403     868.659     371.595
  O      235.047     867.632     371.388
  H      237.232     868.519     372.542
  H      236.120     872.071     370.533
  H      237.252     870.958     369.803
  H      237.137     871.071     371.542

 6  7  8  9  10  11  12  13  14  15  25  28  32  33  34  35 0
 6-311+G(2d,p)
 ****
 36  39  40 0
 6-311+G(2d,p)
 ****
 1  2  3  4  5  16  17  18  19  20  21  22  23  24 0
 3-21G
 ****
 26  27  29  30  31  37  38  41  42  43  44  45  46  47  48 0
 3-21G
 ****


