%nproc=1
%NoSave
%Mem=1900MB
#P OB98/GEN NMR

erre ene a

0 1
  C     -225.455     363.225     375.970
  O     -226.530     364.114     375.806
  P     -226.594     365.234     374.667
  C     -228.789     364.504     373.442
  O     -228.129     365.460     374.262
  C     -230.311     364.712     373.462
  O     -230.797     364.409     374.792
  C     -230.685     366.178     373.168
  O     -231.807     366.329     372.310
  C     -230.781     366.787     374.559
  O     -231.538     367.991     374.601
  C     -231.336     365.620     375.372
  N     -232.328     367.716     379.898
  C     -233.050     367.801     378.725
  N     -234.066     368.692     378.711
  N     -232.782     367.093     377.658
  C     -231.671     366.327     377.781
  C     -230.879     366.160     378.896
  C     -231.209     366.917     380.079
  O     -230.532     366.963     381.099
  N     -229.798     365.351     378.636
  C     -229.921     365.054     377.358
  N     -231.030     365.649     376.794
  O     -225.587     365.124     373.569
  O     -226.265     366.574     375.506
  H     -231.094     368.642     374.024
  H     -225.764     367.166     374.913
  H     -232.539     368.350     380.663
  H     -229.232     364.443     376.786
  H     -232.427     365.573     375.304
  H     -229.769     367.037     374.885
  H     -234.205     369.350     379.463
  H     -229.873     366.674     372.619
  H     -234.444     368.955     377.802
  H     -230.779     364.008     372.770
  H     -228.537     363.522     373.861
  H     -228.410     364.538     372.418
  P     -231.833     366.699     370.755
  C     -233.687     365.011     370.224
  O     -233.288     366.364     370.176
  O     -230.904     365.602     370.048
  O     -231.340     368.072     370.439
  H     -230.379     366.026     369.343
  H     -234.548     364.874     369.563
  H     -233.971     364.747     371.242
  H     -232.878     364.349     369.885
  H     -225.652     362.577     376.798
  H     -224.559     363.779     376.156
  H     -225.336     362.642     375.081

 3  4  5  6  7  8  9  10  11  12  23  26  30  31 0
 6-311+G(2d,p)
 ****
 33  35  36  37  38 0
 6-311+G(2d,p)
 ****
 1  2  13  14  15  16  17  18  19  20  21  22  24  25 0
 3-21G
 ****
 27  28  29  32  34  39  40  41  42  43  44  45  46  47  48  49 0
 3-21G
 ****


