%nproc=1
%NoSave
%Mem=1900MB
#P OB98/GEN NMR

erre ene a

0 1
  C     -261.232    -274.467    -293.811
  O     -260.946    -274.566    -292.429
  H     -260.631    -275.201    -294.346
  H     -260.974    -273.469    -294.172
  H     -262.291    -274.670    -293.995
  P     -261.795    -273.625    -291.443
  C     -263.301    -275.614    -290.734
  O     -263.240    -274.313    -291.297
  C     -264.711    -276.189    -290.838
  O     -265.128    -276.167    -292.238
  C     -264.848    -277.632    -290.335
  O     -266.136    -277.774    -289.731
  C     -264.841    -278.439    -291.628
  O     -265.431    -279.727    -291.471
  C     -265.617    -277.489    -292.541
  N     -268.088    -278.522    -296.801
  C     -268.560    -278.183    -295.551
  N     -269.902    -278.100    -295.410
  N     -267.790    -277.940    -294.529
  C     -266.469    -278.021    -294.817
  C     -265.870    -278.351    -296.013
  C     -266.739    -278.644    -297.134
  O     -266.377    -278.968    -298.258
  N     -264.503    -278.356    -295.896
  C     -264.277    -278.023    -294.637
  N     -265.434    -277.809    -293.943
  O     -262.081    -272.336    -292.349
  O     -261.122    -273.269    -290.159
  H     -265.363    -280.193    -292.329
  H     -261.398    -271.655    -292.192
  H     -268.725    -278.713    -297.554
  H     -263.295    -277.929    -294.181
  H     -266.693    -277.509    -292.350
  H     -263.810    -278.577    -291.983
  H     -270.552    -278.230    -296.168
  H     -264.070    -277.944    -289.632
  H     -270.267    -277.814    -294.506
  H     -265.397    -275.520    -290.296
  H     -263.010    -275.558    -289.677
  H     -262.594    -276.266    -291.258
  P     -266.232    -277.672    -288.135
  C     -267.661    -275.500    -288.120
  O     -266.448    -276.133    -287.744
  O     -264.723    -277.947    -287.670
  O     -267.184    -278.645    -287.510
  H     -264.715    -278.333    -286.776
  H     -267.650    -274.483    -287.788
  H     -268.485    -276.013    -287.670
  H     -267.762    -275.527    -289.185

 6  7  8  9  10  11  12  13  14  15  26  29  33  34 0
 6-311+G(2d,p)
 ****
 36  38  39  40  41 0
 6-311+G(2d,p)
 ****
 1  2  3  4  5  16  17  18  19  20  21  22  23  24  25 0
 3-21G
 ****
 27  28  30  31  32  35  37  42  43  44  45  46  47 0
 3-21G
 ****
 48  49 0
 3-21G
 ****


