%nproc=1
%NoSave
%Mem=1900MB
#P OB98/GEN NMR

erre ene a

0 1
  C     -113.531    -477.313    -280.817
  O     -113.916    -476.760    -279.575
  H     -114.284    -478.042    -281.123
  H     -112.567    -477.821    -280.719
  H     -113.465    -476.533    -281.578
  P     -112.953    -475.633    -278.946
  C     -111.285    -477.313    -277.867
  O     -111.502    -476.326    -278.867
  C     -110.116    -476.906    -276.962
  O     -110.026    -477.833    -275.855
  C     -108.760    -476.914    -277.684
  O     -108.022    -475.753    -277.303
  C     -108.080    -478.176    -277.191
  O     -106.658    -478.082    -277.252
  C     -108.675    -478.329    -275.786
  N     -108.644    -479.716    -275.327
  C     -108.885    -479.937    -273.964
  O     -109.101    -478.984    -273.209
  N     -108.829    -481.217    -273.479
  C     -108.492    -482.188    -274.268
  N     -108.430    -483.434    -273.723
  C     -108.178    -481.998    -275.697
  C     -108.280    -480.750    -276.153
  O     -113.427    -475.572    -277.422
  O     -112.974    -474.314    -279.644
  H     -106.403    -477.979    -278.197
  H     -113.068    -474.773    -276.964
  H     -107.887    -482.838    -276.312
  H     -108.066    -480.517    -277.191
  H     -108.121    -477.712    -275.062
  H     -108.388    -479.021    -277.817
  H     -108.859    -476.926    -278.772
  H     -110.331    -475.919    -276.534
  H     -108.638    -483.527    -272.733
  H     -111.061    -478.269    -278.353
  H     -108.149    -484.259    -274.235
  H     -112.192    -477.417    -277.263
  P     -108.207    -474.458    -278.239
  C     -106.078    -474.766    -279.691
  O     -107.503    -474.773    -279.647
  O     -107.251    -473.366    -277.560
  O     -109.622    -473.992    -278.340
  H     -107.770    -472.755    -277.006
  H     -105.751    -474.990    -280.685
  H     -105.697    -475.503    -279.015
  H     -105.717    -473.800    -279.406

 6  7  8  9  10  11  12  13  14  15  16  26  30  31  32  33  35 0
 6-311+G(2d,p)
 ****
 37  38 0
 6-311+G(2d,p)
 ****
 1  2  3  4  5  17  18  19  20  21  22  23  24  25 0
 3-21G
 ****
 27  28  29  34  36  39  40  41  42  43  44  45  46 0
 3-21G
 ****


