%nproc=1
%NoSave
%Mem=1900MB
#P OB98/GEN NMR

erre ene a

0 1
  C     -270.453     105.898    -102.475
  O     -270.281     107.315    -102.350
  P     -268.913     108.057    -102.732
  C     -269.809     109.712    -104.495
  O     -269.248     109.556    -103.198
  C     -270.066     111.189    -104.827
  O     -271.186     111.696    -104.078
  C     -268.887     112.113    -104.528
  O     -267.906     112.013    -105.549
  C     -269.594     113.474    -104.440
  O     -269.824     114.005    -105.761
  C     -270.925     113.084    -103.775
  N     -270.237     116.537    -100.061
  C     -270.191     116.641    -101.404
  N     -270.379     115.680    -102.339
  C     -270.666     114.496    -101.735
  C     -270.738     114.233    -100.374
  C     -270.501     115.321     -99.512
  N     -270.530     115.211     -98.143
  N     -271.016     112.911    -100.141
  C     -271.134     112.382    -101.340
  N     -270.938     113.300    -102.339
  O     -268.056     107.296    -103.700
  O     -268.149     108.249    -101.336
  H     -270.355     113.337    -106.244
  H     -267.189     108.273    -101.483
  H     -269.977     117.635    -101.796
  H     -271.374     111.341    -101.554
  H     -271.761     113.659    -104.202
  H     -269.019     114.207    -103.883
  H     -268.456     111.862    -103.550
  H     -270.338     111.245    -105.897
  H     -270.761     109.166    -104.529
  H     -270.321     116.029     -97.591
  H     -270.686     114.305     -97.723
  H     -269.124     109.276    -105.225
  P     -266.379     111.725    -105.161
  C     -266.293     109.483    -106.407
  O     -265.766     110.794    -106.310
  O     -266.146     111.243    -103.762
  O     -265.644     113.129    -105.414
  H     -264.883     113.222    -104.816
  H     -265.847     108.849    -105.641
  H     -266.061     109.087    -107.399
  H     -267.387     109.500    -106.281
  H     -271.441     105.630    -102.164
  H     -269.737     105.396    -101.859
  H     -270.310     105.610    -103.495

 3  4  5  6  7  8  9  10  11  12  22  25  29  30  31  32 0
 6-311+G(2d,p)
 ****
 33  36  37 0
 6-311+G(2d,p)
 ****
 1  2  13  14  15  16  17  18  19  20  21  23  24  26 0
 3-21G
 ****
 27  28  34  35  38  39  40  41  42  43  44  45  46  47  48 0
 3-21G
 ****


