%nproc=1
%NoSave
%Mem=1900MB
#P OB98/GEN NMR

erre ene a

0 1
  C      663.868    -533.231     193.602
  O      664.186    -532.585     192.364
  P      665.577    -532.997     191.670
  C      667.255    -531.787     193.260
  O      666.702    -533.021     192.824
  C      668.422    -532.023     194.217
  O      667.999    -532.750     195.387
  C      669.553    -532.853     193.626
  O      670.402    -532.071     192.790
  C      670.286    -533.293     194.892
  O      671.178    -532.236     195.321
  C      669.136    -533.472     195.897
  N      669.668    -537.604     198.800
  C      670.233    -536.348     198.929
  N      671.032    -536.157     200.007
  N      670.034    -535.364     198.084
  C      669.180    -535.695     197.081
  C      668.571    -536.901     196.837
  C      668.829    -537.986     197.762
  O      668.388    -539.131     197.668
  N      667.777    -536.848     195.716
  C      667.896    -535.602     195.293
  N      668.754    -534.867     196.083
  O      665.960    -531.704     190.811
  O      665.492    -534.219     190.828
  H      671.944    -532.243     194.709
  H      666.513    -531.949     190.054
  H      669.865    -538.326     199.468
  H      667.378    -535.186     194.437
  H      669.381    -533.048     196.880
  H      670.905    -534.185     194.729
  H      671.169    -536.840     200.738
  H      669.162    -533.742     193.100
  H      671.427    -535.226     200.139
  H      668.802    -531.050     194.532
  H      666.485    -531.201     193.768
  H      667.577    -531.212     192.389
  P      670.293    -532.316     191.213
  C      672.397    -533.794     191.549
  O      671.144    -533.633     190.900
  O      671.173    -531.123     190.610
  O      668.895    -532.302     190.672
  H      670.853    -530.868     189.729
  H      672.337    -533.510     192.606
  H      673.150    -533.184     191.053
  H      672.693    -534.841     191.486
  H      662.925    -532.874     193.959
  H      664.628    -533.013     194.323
  H      663.814    -534.289     193.449

 3  4  5  6  7  8  9  10  11  12  23  26  30  31  33  0
 6-311+G(2d,p)
 ****
 35  36  37  38 0
 6-311+G(2d,p)
 ****
 1  2  13  14  15  16  17  18  19  20  21  22  24  25  27  28  29 0
 3-21G
 ****
 32  34  39  40  41  42  43  44  45  46  47  48  49 0
 3-21G
 ****


