%nproc=1
%NoSave
%Mem=1900MB
#P OB98/GEN NMR

erre ene a

0 1
  C       -6.653    -897.030      35.011
  O       -5.943    -896.190      34.132
  P       -5.017    -896.750      32.948
  C       -3.512    -898.510      34.134
  O       -3.600    -897.200      33.583
  C       -2.065    -898.980      34.372
  O       -1.364    -899.040      33.101
  C       -1.314    -897.940      35.218
  O       -1.427    -897.960      36.628
  C        0.113    -897.960      34.696
  O        0.988    -898.770      35.493
  C       -0.031    -898.550      33.295
  N        3.420    -897.050      29.885
  C        3.359    -898.210      30.604
  N        4.469    -899.010      30.531
  N        2.327    -898.590      31.329
  C        1.346    -897.650      31.380
  C        1.287    -896.460      30.695
  C        2.404    -896.080      29.863
  O        2.529    -895.010      29.278
  N        0.168    -895.720      31.045
  C       -0.421    -896.470      31.951
  N        0.269    -897.620      32.220
  O       -5.017    -895.970      31.672
  O       -5.716    -898.170      32.642
  H        0.631    -899.670      35.494
  H       -5.634    -898.340      31.682
  H        4.272    -896.780      29.410
  H       -1.326    -896.200      32.476
  H        0.632    -899.410      33.179
  H        0.538    -896.940      34.706
  H        5.321    -898.700      30.114
  H       -1.716    -896.960      34.941
  H        4.527    -899.790      31.184
  H       -2.037    -900.000      34.773
  H       -4.025    -899.190      33.449
  H       -4.057    -898.550      35.088
  P       -1.018    -896.780      37.641
  C        1.534    -896.890      37.806
  O        0.308    -897.230      38.416
  O       -2.136    -896.820      38.769
  O       -0.958    -895.420      37.020
  H       -2.177    -895.950      39.225
  H        2.327    -897.490      38.230
  H        1.767    -895.840      37.973
  H        1.489    -897.080      36.732
  H       -7.197    -896.433      35.713
  H       -5.965    -897.660      35.536
  H       -7.336    -897.635      34.452

 3  4  5  6  7  8  9  10  11  12  23  26  30  31 0
 6-311+G(2d,p)
 ****
 33  35  36  37  38 0
 6-311+G(2d,p)
 ****
 1  2  13  14  15  16  17  18  19  20  21  22  24  25 0
 3-21G
 ****
 27  28  29  32  34  39  40  41  42  43  44  45  46  47  48  49 0
 3-21G
 ****


