%nproc=1
%NoSave
%Mem=1900MB
#P OB98/GEN NMR

erre ene a

0 1
  C      339.403     294.544    -490.616
  O      338.242     295.212    -490.107
  P      337.986     295.060    -488.524
  C      336.912     297.410    -488.242
  O      336.734     295.999    -488.137
  C      335.790     298.169    -487.517
  O      334.514     297.991    -488.188
  C      335.594     297.728    -486.058
  O      335.216     298.899    -485.313
  C      334.397     296.791    -486.144
  O      333.780     296.598    -484.870
  C      333.570     297.527    -487.184
  N      328.761     297.522    -488.764
  C      329.481     298.485    -488.104
  N      328.840     299.665    -487.865
  N      330.721     298.346    -487.701
  C      331.247     297.137    -488.038
  C      330.648     296.092    -488.716
  C      329.263     296.272    -489.120
  O      328.582     295.438    -489.716
  N      331.522     295.045    -488.900
  C      332.625     295.432    -488.269
  N      332.536     296.717    -487.795
  O      339.245     295.810    -487.875
  O      337.878     293.648    -488.057
  H      333.475     297.481    -484.574
  H      339.911     295.165    -487.589
  H      327.809     297.685    -489.034
  H      333.526     294.842    -488.170
  H      333.054     298.410    -486.766
  H      334.718     295.800    -486.528
  H      327.902     299.859    -488.185
  H      336.473     297.256    -485.601
  H      329.360     300.407    -487.412
  H      336.030     299.243    -487.551
  H      336.906     297.708    -489.298
  H      337.896     297.682    -487.853
  P      335.999     299.206    -483.954
  C      336.499     301.654    -484.672
  O      335.923     300.794    -483.709
  O      337.535     298.964    -484.366
  O      335.615     298.341    -482.797
  H      338.013     298.536    -483.623
  H      335.983     302.612    -484.630
  H      336.403     301.249    -485.681
  H      337.558     301.803    -484.440
  H      339.476     294.710    -491.671
  H      339.323     293.494    -490.425
  H      340.277     294.929    -490.133

 3  4  5  6  7  8  9  10  11  12  23  26  30  31 0
 6-311+G(2d,p)
 ****
 33  35  36  37  38 0
 6-311+G(2d,p)
 ****
 1  2  13  14  15  16  17  18  19  20  21  22  24  25 0
 3-21G
 ****
 27  28  29  32  34  39  40  41  42  43  44  45  46  47  48  49 0
 3-21G
 ****


