%nproc=1
%NoSave
%Mem=1900MB
#P OB98/GEN NMR

erre ene a

0 1
  C      463.324     357.610     694.938
  O      464.702     357.816     695.174
  H      462.950     358.428     694.316
  H      462.776     357.615     695.885
  H      463.152     356.667     694.414
  P      465.535     356.671     695.923
  C      467.597     357.707     694.770
  O      467.062     357.159     695.969
  C      469.122     357.639     694.804
  O      469.553     356.332     695.253
  C      469.776     357.842     693.443
  O      469.759     359.199     693.052
  C      471.160     357.259     693.705
  O      472.007     358.223     694.357
  C      470.842     356.081     694.651
  N      470.854     354.799     693.945
  C      471.926     353.952     694.224
  O      472.823     354.239     695.027
  N      471.965     352.788     693.512
  C      471.141     352.458     692.467
  O      471.366     351.534     691.704
  C      469.999     353.362     692.259
  C      469.915     354.475     692.987
  O      465.329     355.283     695.417
  O      465.070     356.813     697.453
  H      464.423     356.110     697.652
  H      471.513     358.524     695.143
  H      472.764     352.191     693.676
  H      469.273     353.099     691.490
  H      469.090     355.172     692.829
  H      471.568     356.040     695.471
  H      471.649     356.962     692.777
  H      469.272     357.226     692.689
  H      469.487     358.389     695.527
  H      467.278     358.750     694.687
  H      467.195     357.142     693.913
  P      469.284     359.615     691.577
  C      468.519     361.875     692.530
  O      469.236     361.212     691.493
  O      468.056     358.922     691.085
  O      470.537     359.255     690.653
  H      470.231     358.722     689.897
  H      468.556     362.932     692.369
  H      468.963     361.642     693.475
  H      467.500     361.548     692.524

 6  7  8  9  10  11  12  13  14  15  16  27  31  32  33  34  35 0
 6-311+G(2d,p)
 ****
 36  37 0
 6-311+G(2d,p)
 ****
 1  2  3  4  5  17  18  19  20  21  22  23  24  25 0
 3-21G
 ****
 26  28  29  30  38  39  40  41  42  43  44  45 0
 3-21G
 ****


