%nproc=1
%NoSave
%Mem=1900MB
#P OB98/GEN NMR

erre ene a

0 1
  C     -528.382    1295.243     -93.385
  O     -527.711    1295.632     -92.166
  P     -528.213    1295.131     -90.732
  C     -529.979    1296.977     -90.533
  O     -529.751    1295.567     -90.649
  C     -531.437    1297.242     -90.130
  O     -532.305    1296.717     -91.176
  C     -531.906    1296.559     -88.862
  O     -531.629    1297.291     -87.658
  C     -533.419    1296.564     -89.073
  O     -533.968    1297.849     -88.784
  C     -533.535    1296.251     -90.559
  N     -536.855    1292.765     -92.315
  C     -536.921    1294.120     -92.208
  N     -536.018    1294.970     -91.674
  C     -534.888    1294.305     -91.360
  C     -534.652    1292.953     -91.420
  C     -535.686    1292.147     -91.967
  N     -535.610    1290.777     -92.087
  N     -533.397    1292.642     -90.950
  C     -532.877    1293.803     -90.617
  N     -533.734    1294.842     -90.870
  O     -527.341    1295.548     -89.595
  O     -528.307    1293.538     -90.894
  H     -533.650    1298.116     -87.905
  H     -528.338    1293.108     -89.991
  H     -537.874    1294.567     -92.531
  H     -531.876    1293.943     -90.195
  H     -534.370    1296.810     -91.051
  H     -533.946    1295.854     -88.436
  H     -531.562    1295.532     -88.800
  H     -531.588    1298.319     -90.098
  H     -529.813    1297.421     -91.524
  H     -536.365    1290.329     -92.589
  H     -534.699    1290.351     -91.985
  H     -529.305    1297.427     -89.813
  P     -530.527    1296.634     -86.660
  C     -532.369    1294.869     -86.160
  O     -531.018    1295.124     -86.427
  O     -530.277    1297.448     -85.444
  O     -529.237    1296.488     -87.606
  H     -529.323    1295.819     -88.301
  H     -532.523    1293.755     -86.186
  H     -533.014    1295.299     -86.903
  H     -532.648    1295.222     -85.173
  H     -527.885    1295.687     -94.223
  H     -529.398    1295.577     -93.355
  H     -528.359    1294.177     -93.480

 3  4  5  6  7  8  9  10  11  12  22  25  29  30  31  32 0
 6-311+G(2d,p)
 ****
 33  36  37 0
 6-311+G(2d,p)
 ****
 1  2  13  14  15  16  17  18  19  20  21  23  24  26 0
 3-21G
 ****
 27  28  34  35  38  39  40  41  42  43  44  45  46  47  48 0
 3-21G
 ****


