%nproc=1
%NoSave
%Mem=1900MB
#P OB98/GEN NMR

erre ene a

0 1
  C       64.737      22.544      47.564
  O       64.829      23.283      48.766
  H       64.281      23.178      46.799
  H       64.109      21.660      47.702
  H       65.731      22.245      47.224
  P       65.393      22.549      50.072
  C       65.064      20.102      50.845
  O       64.454      21.273      50.313
  C       64.166      18.885      50.635
  O       63.584      18.913      49.316
  C       64.892      17.549      50.739
  O       65.168      17.236      52.089
  C       63.895      16.635      50.046
  O       62.806      16.303      50.921
  C       63.408      17.541      48.889
  N       64.102      17.298      47.628
  C       63.708      16.158      46.920
  O       62.837      15.417      47.371
  N       64.332      15.882      45.727
  C       65.230      16.690      45.262
  N       65.805      16.361      44.074
  C       65.648      17.920      45.960
  C       65.058      18.154      47.130
  O       65.589      23.409      51.282
  O       66.770      21.896      49.583
  H       63.212      15.941      51.734
  H       67.518      22.492      49.776
  H       66.395      18.571      45.530
  H       65.309      19.038      47.709
  H       62.333      17.399      48.718
  H       64.346      15.696      49.727
  H       65.812      17.570      50.144
  H       63.343      18.943      51.359
  H       65.470      15.517      43.622
  H       65.216      20.277      51.915
  H       66.389      16.990      43.543
  H       66.042      19.932      50.381
  P       66.306      16.180      52.490
  C       66.513      13.618      52.446
  O       65.648      14.730      52.282
  O       66.933      16.399      53.825
  O       67.344      16.265      51.276
  H       67.904      17.076      51.358
  H       65.965      12.713      52.284
  H       66.912      13.620      53.439
  H       67.314      13.682      51.739

 6  7  8  9  10  11  12  13  14  15  16  26  30  31  32  33  35 0
 6-311+G(2d,p)
 ****
 37  38 0
 6-311+G(2d,p)
 ****
 1  2  3  4  5  17  18  19  20  21  22  23  24  25 0
 3-21G
 ****
 27  28  29  34  36  39  40  41  42  43  44  45  46 0
 3-21G
 ****


