%nproc=1
%NoSave
%Mem=1900MB
#P OB98/GEN NMR

erre ene a

0 1
  C       -9.038     460.853      23.072
  O       -8.322     461.250      21.899
  P       -8.227     462.831      21.634
  C       -6.602     462.459      19.641
  O       -7.810     463.050      20.097
  C       -6.336     462.831      18.183
  O       -7.143     462.056      17.262
  C       -6.635     464.296      17.864
  O       -5.552     465.112      18.292
  C       -6.776     464.255      16.347
  O       -5.499     464.327      15.687
  C       -7.432     462.884      16.101
  N      -11.077     463.687      12.679
  C       -9.717     463.889      12.587
  N       -9.261     464.349      11.399
  N       -8.879     463.658      13.564
  C       -9.479     463.203      14.686
  C      -10.813     462.937      14.894
  C      -11.730     463.196      13.805
  O      -12.946     463.007      13.831
  N      -11.031     462.422      16.146
  C       -9.861     462.499      16.733
  N       -8.865     462.906      15.878
  O       -6.931     463.272      22.455
  O       -9.442     463.580      22.078
  H       -4.971     465.035      16.087
  H       -7.196     463.804      23.227
  H      -11.680     463.886      11.891
  H       -9.660     462.254      17.769
  H       -6.985     462.376      15.229
  H       -7.366     465.106      15.977
  H       -9.845     464.542      10.603
  H       -7.575     464.599      18.323
  H       -8.256     464.495      11.308
  H       -5.282     462.616      17.969
  H       -6.656     461.376      19.747
  H       -5.784     462.801      20.285
  P       -5.879     466.313      19.301
  C       -4.129     465.702      21.121
  O       -4.546     466.621      20.131
  O       -6.854     465.625      20.383
  O       -6.532     467.495      18.665
  H       -7.606     466.225      20.567
  H       -3.034     465.739      21.210
  H       -4.430     464.674      20.879
  H       -4.567     465.981      22.083
  H       -9.037     459.786      23.146
  H      -10.047     461.205      23.011
  H       -8.566     461.271      23.936

 3  4  5  6  7  8  9  10  11  12  23  26  30  31 0
 6-311+G(2d,p)
 ****
 33  35  36  37  38 0
 6-311+G(2d,p)
 ****
 1  2  13  14  15  16  17  18  19  20  21  22  24  25 0
 3-21G
 ****
 27  28  29  32  34  39  40  41  42  43  44  45  46  47  48  49 0
 3-21G
 ****


