%nproc=1
%NoSave
%Mem=1900MB
#P OB98/GEN NMR

erre ene a

0 1
  C     -152.893     177.570    -466.590
  O     -151.796     178.457    -466.562
  H     -153.395     177.605    -465.619
  H     -152.534     176.551    -466.762
  H     -153.613     177.842    -467.367
  P     -151.169     178.948    -467.948
  C     -149.573     178.010    -469.751
  O     -150.328     177.732    -468.576
  C     -148.094     177.681    -469.562
  O     -147.958     176.369    -468.973
  C     -147.322     177.653    -470.887
  O     -146.828     178.913    -471.304
  C     -146.183     176.690    -470.569
  O     -145.057     177.381    -470.002
  C     -146.799     175.739    -469.542
  N     -145.396     170.922    -470.534
  C     -144.620     171.974    -470.083
  N     -143.305     171.713    -469.915
  N     -145.102     173.168    -469.841
  C     -146.411     173.302    -470.149
  C     -147.275     172.335    -470.619
  C     -146.754     170.997    -470.817
  O     -147.402     170.027    -471.189
  N     -148.525     172.849    -470.859
  C     -148.393     174.141    -470.617
  N     -147.148     174.443    -470.108
  O     -150.012     179.965    -467.493
  O     -152.125     179.620    -468.887
  H     -144.722     178.012    -470.670
  H     -149.906     180.664    -468.168
  H     -144.981     170.019    -470.674
  H     -149.168     174.884    -470.748
  H     -146.107     175.541    -468.713
  H     -145.825     176.198    -471.477
  H     -142.871     170.842    -470.167
  H     -147.933     177.210    -471.679
  H     -142.673     172.505    -469.771
  H     -147.649     178.397    -468.855
  H     -149.696     179.079    -469.950
  H     -149.982     177.468    -470.605
  P     -146.329     179.143    -472.807
  C     -144.469     178.112    -474.348
  O     -145.166     178.099    -473.121
  O     -145.557     180.545    -472.725
  O     -147.407     179.157    -473.843
  H     -146.130     181.271    -473.031
  H     -143.736     177.333    -474.350
  H     -143.985     179.058    -474.473
  H     -145.158     177.955    -475.151

 6  7  8  9  10  11  12  13  14  15  26  29  33  34 0
 6-311+G(2d,p)
 ****
 36  38  39  40  41 0
 6-311+G(2d,p)
 ****
 1  2  3  4  5  16  17  18  19  20  21  22  23  24  25 0
 3-21G
 ****
 27  28  30  31  32  35  37  42  43  44  45  46  47 0
 3-21G
 ****
 48  49 0
 3-21G
 ****


