%nproc=1
%NoSave
%Mem=1900MB
#P OB98/GEN NMR

erre ene a

0 1
  C       34.971      47.443     -11.747
  O       34.750      46.055     -11.895
  H       35.584      47.610     -10.858
  H       34.019      47.967     -11.622
  H       35.497      47.836     -12.621
  P       33.776      45.612     -13.093
  C       31.864      45.614     -11.318
  O       32.550      44.902     -12.336
  C       30.866      44.691     -10.628
  O       30.090      45.420      -9.652
  C       29.846      44.061     -11.569
  O       30.369      42.962     -12.296
  C       28.787      43.627     -10.573
  O       29.229      42.442      -9.885
  C       28.756      44.843      -9.620
  N       27.756      45.843      -9.996
  C       26.436      45.589      -9.603
  O       26.153      44.565      -8.984
  N       25.457      46.488      -9.952
  C       25.768      47.553     -10.624
  N       24.757      48.401     -10.954
  C       27.146      47.867     -11.042
  C       28.077      46.981     -10.701
  O       34.538      44.372     -13.760
  O       33.388      46.685     -14.053
  H       28.529      42.207      -9.249
  H       33.957      43.946     -14.435
  H       27.354      48.762     -11.611
  H       29.113      47.145     -10.977
  H       28.563      44.527      -8.588
  H       27.830      43.389     -11.041
  H       29.407      44.803     -12.245
  H       31.435      43.924     -10.086
  H       23.815      48.129     -10.708
  H       31.342      46.459     -11.780
  H       24.873      49.152     -11.623
  H       32.577      45.995     -10.581
  P       30.069      42.901     -13.873
  C       28.246      41.057     -14.012
  O       29.611      41.400     -14.205
  O       31.527      42.992     -14.521
  O       29.160      43.975     -14.384
  H       31.521      43.538     -15.330
  H       28.096      40.030     -14.274
  H       27.632      41.677     -14.631
  H       27.983      41.206     -12.986

 6  7  8  9  10  11  12  13  14  15  16  26  30  31  32  33  35 0
 6-311+G(2d,p)
 ****
 37  38 0
 6-311+G(2d,p)
 ****
 1  2  3  4  5  17  18  19  20  21  22  23  24  25 0
 3-21G
 ****
 27  28  29  34  36  39  40  41  42  43  44  45  46 0
 3-21G
 ****


