%nproc=1
%NoSave
%Mem=1900MB
#P OB98/GEN NMR

erre ene a

0 1
  C      312.046     345.255    -560.868
  O      311.112     344.721    -559.949
  H      312.132     344.600    -561.743
  H      311.696     346.235    -561.197
  H      313.024     345.370    -560.391
  P      311.444     343.278    -559.333
  C      312.691     344.400    -557.347
  O      312.755     343.480    -558.428
  C      313.547     343.900    -556.188
  O      312.985     342.683    -555.651
  C      314.982     343.558    -556.577
  O      315.810     344.704    -556.640
  C      315.378     342.660    -555.414
  O      315.660     343.461    -554.254
  C      314.090     341.842    -555.200
  N      316.210     337.209    -555.628
  C      316.469     338.246    -554.804
  N      315.861     339.453    -554.759
  C      314.892     339.527    -555.683
  C      314.519     338.561    -556.595
  C      315.221     337.344    -556.544
  N      314.970     336.286    -557.394
  N      313.501     339.019    -557.413
  C      313.246     340.237    -556.975
  N      314.068     340.594    -555.936
  O      311.995     342.450    -560.587
  O      310.313     342.590    -558.646
  H      316.544     343.854    -554.393
  H      311.923     341.492    -560.413
  H      317.275     338.086    -554.090
  H      312.482     340.893    -557.372
  H      313.914     341.608    -554.143
  H      316.265     342.063    -555.622
  H      315.024     342.983    -557.505
  H      313.525     344.657    -555.396
  H      311.652     344.495    -557.015
  H      315.645     335.538    -557.396
  H      314.341     336.434    -558.171
  H      313.044     345.380    -557.684
  P      317.146     344.611    -557.525
  C      316.032     345.334    -559.764
  O      316.656     344.285    -559.017
  O      317.800     343.235    -557.036
  O      318.074     345.771    -557.375
  H      318.766     343.245    -557.169
  H      315.761     344.970    -560.733
  H      316.714     346.152    -559.868
  H      315.154     345.665    -559.249

 6  7  8  9  10  11  12  13  14  15  25  28  32  33  34  35 0
 6-311+G(2d,p)
 ****
 36  39  40 0
 6-311+G(2d,p)
 ****
 1  2  3  4  5  16  17  18  19  20  21  22  23  24 0
 3-21G
 ****
 26  27  29  30  31  37  38  41  42  43  44  45  46  47 0
 3-21G
 ****
 48 0
 3-21G
 ****


