%nproc=1
%NoSave
%Mem=1900MB
#P OB98/GEN NMR

erre ene a

0 1
  C      131.211     326.716    -459.828
  O      132.462     326.058    -460.059
  P      133.168     326.184    -461.490
  C      134.044     324.515    -463.264
  O      133.070     324.785    -462.262
  C      134.226     323.004    -463.422
  O      134.891     322.414    -462.271
  C      132.904     322.258    -463.540
  O      132.148     322.454    -464.719
  C      133.308     320.833    -463.201
  O      133.835     320.152    -464.333
  C      134.411     321.059    -462.138
  N      133.951     320.796    -460.775
  C      133.763     319.457    -460.441
  O      133.928     318.537    -461.239
  N      133.345     319.213    -459.157
  C      133.073     320.162    -458.212
  O      132.680     319.884    -457.082
  C      133.257     321.560    -458.633
  C      133.684     321.810    -459.868
  O      134.522     326.816    -461.487
  O      132.128     327.102    -462.314
  H      134.304     319.364    -464.012
  H      132.650     327.739    -462.841
  H      133.219     318.247    -458.895
  H      133.046     322.335    -457.911
  H      133.839     322.834    -460.204
  H      135.268     320.405    -462.334
  H      132.461     320.240    -462.844
  H      132.255     322.605    -462.714
  H      134.862     322.820    -464.298
  H      134.995     324.980    -462.984
  H      133.735     324.987    -464.202
  P      130.742     323.217    -464.738
  C      128.427     322.946    -463.590
  O      129.780     322.540    -463.648
  O      130.147     323.524    -466.074
  O      131.114     324.605    -464.021
  H      130.564     325.308    -464.407
  H      127.932     322.392    -462.783
  H      127.922     322.721    -464.536
  H      128.360     324.018    -463.375
  H      130.888     326.526    -458.826
  H      130.480     326.344    -460.515
  H      131.331     327.770    -459.970

 3  4  5  6  7  8  9  10  11  12  13  23  28  29  30  31  32 0
 6-311+G(2d,p)
 ****
 33  34 0
 6-311+G(2d,p)
 ****
 1  2  14  15  16  17  18  19  20  21  22  24  25  26  27 0
 3-21G
 ****
 35  36  37  38  39  40  41  42  43  44  45 0
 3-21G
 ****


