%nproc=1
%NoSave
%Mem=1900MB
#P OB98/GEN NMR

erre ene a

0 1
  C      -54.040    -123.016    -124.903
  O      -54.745    -122.625    -126.062
  H      -53.179    -123.618    -125.202
  H      -54.686    -123.625    -124.265
  H      -53.681    -122.147    -124.345
  P      -55.878    -121.500    -125.937
  C      -57.820    -122.816    -127.010
  O      -56.898    -121.746    -127.153
  C      -58.201    -123.394    -128.375
  O      -56.989    -123.830    -129.057
  C      -59.145    -124.604    -128.300
  O      -59.959    -124.587    -129.479
  C      -58.167    -125.761    -128.351
  O      -58.811    -126.969    -128.693
  C      -57.147    -125.229    -129.362
  N      -55.877    -125.952    -129.309
  C      -55.919    -127.303    -129.622
  O      -56.960    -127.901    -129.902
  N      -54.728    -127.972    -129.563
  C      -53.535    -127.442    -129.165
  O      -52.503    -128.096    -129.099
  C      -53.560    -126.015    -128.802
  C      -54.710    -125.344    -128.892
  O      -55.387    -120.097    -125.810
  O      -56.741    -121.948    -124.666
  H      -59.165    -126.918    -129.606
  H      -57.117    -121.164    -124.222
  H      -54.740    -128.952    -129.798
  H      -52.632    -125.566    -128.474
  H      -54.760    -124.293    -128.631
  H      -57.539    -125.308    -130.385
  H      -57.693    -125.910    -127.375
  H      -59.768    -124.608    -127.403
  H      -58.636    -122.593    -128.986
  H      -58.712    -122.427    -126.509
  H      -57.376    -123.599    -126.387
  P      -61.526    -124.934    -129.440
  C      -61.582    -126.844    -131.168
  O      -61.964    -125.502    -130.875
  O      -62.386    -123.822    -128.933
  O      -61.634    -126.213    -128.485
  H      -62.510    -126.230    -128.054
  H      -61.928    -127.108    -132.146
  H      -62.016    -127.504    -130.446
  H      -60.516    -126.927    -131.132

 6  7  8  9  10  11  12  13  14  15  16  26  31  32  33  34  35 0
 6-311+G(2d,p)
 ****
 36  37 0
 6-311+G(2d,p)
 ****
 1  2  3  4  5  17  18  19  20  21  22  23  24  25 0
 3-21G
 ****
 27  28  29  30  38  39  40  41  42  43  44  45 0
 3-21G
 ****


