%nproc=1
%NoSave
%Mem=1900MB
#P OB98/GEN NMR

erre ene a

0 1
  C     -682.814     736.892     -71.205
  O     -683.451     736.296     -72.314
  H     -683.495     736.855     -70.349
  H     -682.586     737.940     -71.426
  H     -681.894     736.361     -70.942
  P     -682.577     735.925     -73.600
  C     -681.528     733.652     -74.231
  O     -681.699     734.634     -73.223
  C     -680.470     732.622     -73.815
  O     -679.186     733.293     -73.689
  C     -680.791     732.016     -72.440
  O     -680.262     730.699     -72.305
  C     -680.055     732.940     -71.486
  O     -679.762     732.330     -70.229
  C     -678.814     733.298     -72.297
  N     -676.802     736.216     -68.629
  C     -677.444     734.997     -68.521
  N     -677.561     734.480     -67.273
  N     -677.942     734.349     -69.541
  C     -677.818     735.008     -70.718
  C     -677.223     736.235     -70.948
  C     -676.641     736.920     -69.814
  O     -676.083     738.015     -69.853
  N     -677.295     736.582     -72.277
  C     -677.933     735.584     -72.844
  N     -678.251     734.591     -71.949
  O     -681.474     737.089     -73.654
  O     -683.332     735.825     -74.894
  H     -679.372     731.456     -70.412
  H     -681.116     737.173     -74.559
  H     -676.409     736.660     -67.817
  H     -678.177     735.519     -73.899
  H     -678.031     732.548     -72.160
  H     -680.696     733.803     -71.283
  H     -677.366     735.036     -66.452
  H     -681.856     731.998     -72.232
  H     -678.285     733.773     -67.142
  H     -680.356     731.860     -74.594
  H     -681.221     734.174     -75.139
  H     -682.483     733.162     -74.452
  P     -681.284     729.496     -72.004
  C     -682.643     728.315     -73.951
  O     -681.412     728.564     -73.297
  O     -682.705     730.212     -71.905
  O     -680.964     728.709     -70.768
  H     -683.067     730.129     -71.005
  H     -682.479     727.666     -74.786
  H     -683.058     729.240     -74.294
  H     -683.323     727.851     -73.267

 6  7  8  9  10  11  12  13  14  15  26  29  33  34 0
 6-311+G(2d,p)
 ****
 36  38  39  40  41 0
 6-311+G(2d,p)
 ****
 1  2  3  4  5  16  17  18  19  20  21  22  23  24  25 0
 3-21G
 ****
 27  28  30  31  32  35  37  42  43  44  45  46  47 0
 3-21G
 ****
 48  49 0
 3-21G
 ****


