%nproc=1
%NoSave
%Mem=1900MB
#P OB98/GEN NMR

erre ene a

0 1
  C      248.982    -107.321     440.363
  O      250.029    -108.224     440.663
  H      249.140    -106.921     439.358
  H      248.978    -106.493     441.078
  H      248.019    -107.839     440.391
  P      250.033    -108.843     442.145
  C      251.776    -107.042     442.873
  O      250.488    -107.608     443.068
  C      252.525    -106.996     444.200
  O      253.902    -106.617     443.999
  C      251.966    -105.985     445.197
  O      250.799    -106.447     445.859
  C      253.142    -105.856     446.146
  O      253.202    -107.012     447.000
  C      254.328    -105.838     445.149
  N      254.717    -104.489     444.746
  C      255.448    -103.741     445.682
  O      255.719    -104.209     446.785
  N      255.819    -102.457     445.356
  C      255.503    -101.966     444.199
  N      255.886    -100.683     443.934
  C      254.755    -102.723     443.179
  C      254.397    -103.961     443.514
  O      251.328    -109.784     442.158
  O      248.775    -109.521     442.578
  H      252.534    -106.882     447.701
  H      251.490    -110.117     443.074
  H      254.505    -102.270     442.232
  H      253.842    -104.578     442.817
  H      255.203    -106.344     445.579
  H      253.076    -104.979     446.792
  H      251.788    -105.009     444.724
  H      252.524    -108.012     444.625
  H      256.343    -100.169     444.675
  H      251.653    -106.030     442.473
  H      255.533    -100.164     443.142
  H      252.346    -107.644     442.155
  P      249.843    -105.349     446.540
  C      251.085    -105.605     448.807
  O      250.654    -104.724     447.777
  O      248.718    -106.238     447.247
  O      249.257    -104.349     445.589
  H      247.838    -105.822     447.169
  H      251.608    -105.049     449.557
  H      251.737    -106.346     448.393
  H      250.235    -106.084     449.246

 6  7  8  9  10  11  12  13  14  15  16  26  30  31  32  33  35 0
 6-311+G(2d,p)
 ****
 37  38 0
 6-311+G(2d,p)
 ****
 1  2  3  4  5  17  18  19  20  21  22  23  24  25 0
 3-21G
 ****
 27  28  29  34  36  39  40  41  42  43  44  45  46 0
 3-21G
 ****


