%nproc=1
%NoSave
%Mem=1900MB
#P OB98/GEN NMR

erre ene a

0 1
  C     -556.202    -617.285     545.941
  O     -555.872    -618.107     544.841
  H     -556.203    -616.242     545.612
  H     -555.457    -617.405     546.737
  H     -557.197    -617.530     546.335
  P     -556.115    -619.687     544.963
  C     -555.857    -619.678     542.386
  O     -555.555    -620.345     543.606
  C     -555.746    -620.642     541.193
  O     -554.357    -621.052     541.050
  C     -556.563    -621.924     541.441
  O     -557.010    -622.520     540.221
  C     -555.542    -622.852     542.100
  O     -555.875    -624.235     541.953
  C     -554.259    -622.447     541.378
  N     -550.909    -625.871     543.132
  C     -552.115    -626.086     542.512
  N     -552.484    -627.380     542.322
  N     -552.915    -625.114     542.118
  C     -552.445    -623.874     542.435
  C     -551.274    -623.541     543.063
  C     -550.384    -624.620     543.460
  O     -549.310    -624.488     544.035
  N     -551.154    -622.182     543.204
  C     -552.250    -621.685     542.678
  N     -553.059    -622.681     542.167
  O     -557.703    -619.841     544.794
  O     -555.630    -620.324     546.229
  H     -556.218    -624.360     541.048
  H     -557.996    -620.677     545.179
  H     -550.319    -626.650     543.380
  H     -552.503    -620.641     542.617
  H     -554.149    -623.003     540.444
  H     -555.529    -622.624     543.166
  H     -552.006    -628.131     542.788
  H     -557.419    -621.762     542.088
  H     -553.479    -627.541     542.170
  H     -556.035    -620.141     540.278
  H     -555.140    -618.861     542.286
  H     -556.850    -619.242     542.433
  P     -558.533    -622.310     539.786
  C     -557.838    -621.888     537.246
  O     -558.679    -622.528     538.198
  O     -558.773    -620.748     539.977
  O     -559.506    -623.131     540.564
  H     -559.424    -620.582     540.676
  H     -558.125    -622.186     536.259
  H     -556.821    -622.170     537.422
  H     -557.936    -620.827     537.340

 6  7  8  9  10  11  12  13  14  15  26  29  33  34 0
 6-311+G(2d,p)
 ****
 36  38  39  40  41 0
 6-311+G(2d,p)
 ****
 1  2  3  4  5  16  17  18  19  20  21  22  23  24  25 0
 3-21G
 ****
 27  28  30  31  32  35  37  42  43  44  45  46  47 0
 3-21G
 ****
 48  49 0
 3-21G
 ****


