%nproc=1
%NoSave
%Mem=1900MB
#P OB98/GEN NMR

erre ene a

0 1
  C      -45.235    -896.178      24.719
  O      -45.453    -896.508      23.364
  H      -45.316    -897.088      25.314
  H      -45.982    -895.458      25.076
  H      -44.225    -895.768      24.851
  P      -45.640    -895.298      22.315
  C      -47.746    -894.348      23.476
  O      -47.216    -894.978      22.313
  C      -49.274    -894.438      23.506
  O      -49.846    -893.538      22.538
  C      -49.808    -895.818      23.136
  O      -49.549    -896.808      24.096
  C      -51.255    -895.508      22.741
  O      -52.145    -895.478      23.843
  C      -51.121    -894.088      22.141
  N      -51.288    -894.078      20.686
  C      -52.604    -894.088      20.239
  O      -53.587    -894.098      20.985
  N      -52.766    -894.098      18.875
  C      -51.766    -894.168      17.960
  O      -51.976    -894.228      16.751
  C      -50.385    -894.208      18.494
  C      -50.222    -894.158      19.823
  O      -45.066    -895.528      20.951
  O      -45.017    -894.038      23.073
  H      -51.675    -895.008      24.578
  H      -44.829    -893.298      22.447
  H      -53.711    -894.068      18.530
  H      -49.572    -894.268      17.799
  H      -49.215    -894.188      20.251
  H      -51.888    -893.428      22.576
  H      -51.633    -896.248      22.026
  H      -49.301    -896.138      22.211
  H      -49.627    -894.138      24.503
  H      -47.445    -893.298      23.442
  H      -47.318    -894.808      24.371
  P      -48.586    -898.058      23.821
  C      -49.813    -899.148      21.809
  O      -49.468    -899.258      23.181
  O      -47.601    -898.398      24.898
  O      -47.745    -897.538      22.548
  H      -46.839    -897.908      22.623
  H      -50.391    -900.000      21.517
  H      -48.921    -899.103      21.219
  H      -50.387    -898.258      21.656

 6  7  8  9  10  11  12  13  14  15  16  26  31  32  33  34  35 0
 6-311+G(2d,p)
 ****
 36  37 0
 6-311+G(2d,p)
 ****
 1  2  3  4  5  17  18  19  20  21  22  23  24  25 0
 3-21G
 ****
 27  28  29  30  38  39  40  41  42  43  44  45 0
 3-21G
 ****


