%nproc=1
%NoSave
%Mem=1900MB
#P OB98/GEN NMR

erre ene a

0 1
  C     -289.722     298.578     333.647
  O     -289.704     298.517     335.059
  H     -290.744     298.790     333.317
  H     -289.406     297.620     333.222
  H     -289.065     299.379     333.297
  P     -288.279     298.236     335.744
  C     -288.874     295.724     335.576
  O     -287.917     296.736     335.303
  C     -288.195     294.356     335.659
  O     -289.113     293.361     336.154
  C     -287.692     293.823     334.320
  O     -286.443     294.403     333.983
  C     -287.554     292.341     334.640
  O     -286.330     292.111     335.362
  C     -288.764     292.085     335.563
  N     -290.726     288.042     333.079
  C     -289.460     288.334     333.460
  N     -289.007     289.447     334.076
  C     -290.008     290.312     334.298
  C     -291.342     290.148     333.968
  C     -291.699     288.941     333.332
  N     -292.987     288.642     332.954
  N     -292.081     291.253     334.345
  C     -291.217     292.042     334.947
  N     -289.940     291.535     334.914
  O     -288.191     298.541     337.201
  O     -287.316     299.108     334.810
  H     -285.590     292.333     334.769
  H     -287.598     299.052     333.879
  H     -288.715     287.573     333.245
  H     -291.459     292.979     335.434
  H     -288.511     291.397     336.380
  H     -287.510     291.721     333.738
  H     -288.437     293.951     333.532
  H     -287.373     294.432     336.383
  H     -289.645     295.708     334.799
  H     -293.125     287.843     332.362
  H     -293.688     289.369     333.034
  H     -289.346     295.966     336.533
  P     -286.125     294.846     332.473
  C     -284.486     292.887     332.165
  O     -285.676     293.519     331.694
  O     -285.187     295.994     332.336
  O     -287.560     295.167     331.844
  H     -287.501     295.935     331.248
  H     -284.286     292.018     331.574
  H     -284.615     292.601     333.188
  H     -283.665     293.569     332.086

 6  7  8  9  10  11  12  13  14  15  25  28  32  33  34  35 0
 6-311+G(2d,p)
 ****
 36  39  40 0
 6-311+G(2d,p)
 ****
 1  2  3  4  5  16  17  18  19  20  21  22  23  24 0
 3-21G
 ****
 26  27  29  30  31  37  38  41  42  43  44  45  46  47 0
 3-21G
 ****
 48 0
 3-21G
 ****


