%nproc=1
%NoSave
%Mem=1900MB
#P OB98/GEN NMR

erre ene a

0 1
  C       68.987     693.211    -196.424
  O       68.692     693.790    -195.169
  H       68.430     693.726    -197.220
  H       70.057     693.324    -196.622
  H       68.737     692.143    -196.426
  P       67.162     693.698    -194.678
  C       67.814     693.417    -192.185
  O       67.174     692.847    -193.321
  C       67.072     693.035    -190.909
  O       67.044     691.597    -190.763
  C       67.707     693.561    -189.619
  O       67.361     694.922    -189.394
  C       67.054     692.638    -188.595
  O       65.714     693.090    -188.321
  C       67.014     691.302    -189.341
  N       69.021     686.630    -189.965
  C       67.925     687.226    -190.498
  N       67.464     688.478    -190.297
  C       68.279     689.151    -189.471
  C       69.451     688.692    -188.878
  C       69.815     687.358    -189.154
  N       70.904     686.755    -188.557
  N       70.014     689.675    -188.080
  C       69.190     690.699    -188.183
  N       68.128     690.430    -189.014
  O       66.507     692.687    -195.754
  O       66.428     694.999    -194.636
  H       65.179     692.903    -189.120
  H       66.063     693.208    -196.447
  H       67.326     686.588    -191.162
  H       69.303     691.644    -187.659
  H       66.082     690.738    -189.144
  H       67.590     692.620    -187.632
  H       68.783     693.403    -189.607
  H       66.040     693.378    -191.011
  H       67.829     694.512    -192.282
  H       70.801     685.742    -188.442
  H       71.297     687.251    -187.756
  H       68.853     693.056    -192.150
  P       68.365     695.801    -188.508
  C       69.316     696.725    -190.727
  O       69.612     696.175    -189.454
  O       68.972     694.725    -187.472
  O       67.731     696.949    -187.776
  H       68.817     695.016    -186.562
  H       70.228     696.926    -191.249
  H       68.767     697.635    -190.603
  H       68.729     696.028    -191.289

 6  7  8  9  10  11  12  13  14  15  25  28  32  33  34  35 0
 6-311+G(2d,p)
 ****
 36  39  40 0
 6-311+G(2d,p)
 ****
 1  2  3  4  5  16  17  18  19  20  21  22  23  24 0
 3-21G
 ****
 26  27  29  30  31  37  38  41  42  43  44  45  46  47  48 0
 3-21G
 ****


