%nproc=1
%NoSave
%Mem=1900MB
#P OB98/GEN NMR

erre ene a

0 1
  C     -898.630     400.087    -800.168
  O     -899.230     399.197    -801.111
  P     -898.620     397.730    -801.271
  C     -896.850     397.681    -803.245
  O     -897.140     397.801    -801.871
  C     -895.330     397.596    -803.453
  O     -894.730     396.918    -802.330
  C     -894.920     396.854    -804.715
  O     -894.880     397.691    -805.842
  C     -893.560     396.296    -804.326
  O     -892.560     397.332    -804.415
  C     -893.800     395.901    -802.840
  N     -894.370     394.576    -802.560
  C     -893.540     393.437    -802.602
  O     -892.350     393.475    -802.844
  N     -894.140     392.248    -802.318
  C     -895.420     392.065    -801.845
  O     -895.880     390.962    -801.544
  C     -896.200     393.303    -801.673
  C     -895.660     394.462    -802.041
  O     -899.480     397.087    -802.481
  O     -898.700     396.887    -800.030
  H     -892.680     397.771    -805.279
  H     -900.000     396.342    -802.149
  H     -893.590     391.411    -802.393
  H     -897.200     393.209    -801.270
  H     -896.240     395.393    -801.945
  H     -892.870     395.981    -802.265
  H     -893.250     395.500    -805.004
  H     -895.590     396.009    -804.887
  H     -894.930     398.633    -803.481
  H     -897.260     398.528    -803.802
  H     -897.340     396.778    -803.648
  P     -895.970     397.490    -807.030
  C     -894.380     395.810    -808.132
  O     -895.670     396.024    -807.616
  O     -896.050     398.588    -808.036
  O     -897.340     397.264    -806.227
  H     -897.850     398.127    -806.186
  H     -894.250     394.737    -808.376
  H     -893.610     396.098    -807.412
  H     -894.250     396.386    -809.074
  H     -899.150     401.022    -800.180
  H     -897.605     400.245    -800.429
  H     -898.687     399.660    -799.189

 3  4  5  6  7  8  9  10  11  12  13  23  28  29  30  31  32 0
 6-311+G(2d,p)
 ****
 33  34 0
 6-311+G(2d,p)
 ****
 1  2  14  15  16  17  18  19  20  21  22  24  25  26  27 0
 3-21G
 ****
 35  36  37  38  39  40  41  42  43  44  45 0
 3-21G
 ****


