%nproc=1
%NoSave
%Mem=1900MB
#P OB98/GEN NMR

erre ene a

0 1
  C      209.701    -172.697     207.408
  O      209.000    -171.491     207.730
  P      208.551    -171.263     209.240
  C      210.081    -169.224     209.653
  O      209.750    -170.554     210.045
  C      211.268    -168.696     210.472
  O      212.430    -169.550     210.218
  C      211.722    -167.270     210.127
  O      211.110    -166.188     210.817
  C      213.188    -167.303     210.568
  O      213.270    -167.057     211.994
  C      213.620    -168.732     210.267
  N      218.118    -170.018     208.170
  C      217.688    -170.014     209.443
  N      216.477    -169.651     209.926
  C      215.659    -169.283     208.929
  C      215.960    -169.244     207.566
  C      217.262    -169.632     207.200
  N      217.704    -169.632     205.885
  N      214.871    -168.808     206.842
  C      213.931    -168.563     207.745
  N      214.355    -168.858     209.016
  O      207.928    -172.434     209.933
  O      207.479    -170.062     209.107
  H      213.047    -166.114     212.114
  H      206.756    -170.219     209.752
  H      218.422    -170.328     210.205
  H      212.946    -168.195     207.525
  H      214.267    -169.143     211.045
  H      213.783    -166.524     210.079
  H      211.668    -167.098     209.038
  H      211.038    -168.766     211.543
  H      209.222    -168.567     209.795
  H      218.660    -169.874     205.713
  H      217.085    -169.294     205.163
  H      210.293    -169.246     208.574
  P      210.133    -165.153     210.062
  C      208.158    -165.550     211.731
  O      208.648    -165.631     210.405
  O      210.411    -164.984     208.606
  O      210.296    -163.829     210.943
  H      209.928    -163.883     211.833
  H      207.070    -165.717     211.712
  H      208.356    -164.558     212.154
  H      208.624    -166.321     212.358
  H      209.934    -172.706     206.364
  H      209.086    -173.541     207.644
  H      210.607    -172.746     207.976

 3  4  5  6  7  8  9  10  11  12  22  25  29  30  31  32 0
 6-311+G(2d,p)
 ****
 33  36  37 0
 6-311+G(2d,p)
 ****
 1  2  13  14  15  16  17  18  19  20  21  23  24  26 0
 3-21G
 ****
 27  28  34  35  38  39  40  41  42  43  44  45  46  47  48 0
 3-21G
 ****


