%nproc=1
%NoSave
%Mem=1900MB
#P OB98/GEN NMR

erre ene a

0 1
  C     -294.251     175.462      37.482
  O     -294.949     174.856      36.389
  P     -296.300     174.009      36.580
  C     -297.432     175.278      34.638
  O     -297.122     174.011      35.203
  C     -297.772     175.171      33.148
  O     -296.774     174.395      32.452
  C     -299.102     174.481      32.847
  O     -300.196     175.344      33.110
  C     -298.915     174.117      31.378
  O     -299.206     175.234      30.523
  C     -297.417     173.761      31.323
  N     -297.178     172.326      31.316
  C     -296.651     171.789      30.137
  O     -296.476     172.506      29.148
  N     -296.374     170.442      30.092
  C     -296.661     169.693      31.111
  N     -296.353     168.372      31.011
  C     -297.291     170.207      32.343
  C     -297.515     171.519      32.375
  O     -297.107     174.416      37.769
  O     -295.814     172.488      36.721
  H     -299.323     174.870      29.625
  H     -296.441     172.010      37.297
  H     -297.540     169.542      33.154
  H     -297.971     171.978      33.242
  H     -296.951     174.203      30.429
  H     -299.564     173.295      31.066
  H     -299.182     173.562      33.442
  H     -297.768     176.183      32.728
  H     -295.917     168.051      30.159
  H     -296.555     175.932      34.759
  H     -296.531     167.696      31.749
  H     -298.270     175.718      35.189
  P     -300.815     175.402      34.588
  C     -301.242     177.936      34.455
  O     -301.818     176.652      34.632
  O     -299.835     175.337      35.709
  O     -301.816     174.155      34.626
  H     -301.852     173.806      35.544
  H     -302.019     178.628      34.112
  H     -300.432     177.904      33.720
  H     -300.846     178.294      35.409
  H     -293.385     175.971      37.114
  H     -293.952     174.706      38.178
  H     -294.895     176.163      37.972

 3  4  5  6  7  8  9  10  11  12  13  23  27  28  29  30  32 0
 6-311+G(2d,p)
 ****
 34  35 0
 6-311+G(2d,p)
 ****
 1  2  14  15  16  17  18  19  20  21  22  24  25  26 0
 3-21G
 ****
 31  33  36  37  38  39  40  41  42  43  44  45  46 0
 3-21G
 ****


