%nproc=1
%NoSave
%Mem=1900MB
#P OB98/GEN NMR

erre ene a

0 1
  C       78.246     -26.962      18.947
  O       76.896     -26.534      18.961
  P       75.960     -26.997      20.175
  C       75.249     -29.174      18.943
  O       74.836     -27.974      19.577
  C       74.151     -30.234      19.041
  O       74.554     -31.418      18.290
  C       73.846     -30.687      20.477
  O       72.445     -30.988      20.547
  C       74.648     -31.969      20.593
  O       74.205     -32.812      21.645
  C       74.447     -32.541      19.187
  N       75.410     -33.590      18.857
  C       74.952     -34.663      18.100
  O       73.795     -34.778      17.698
  N       75.863     -35.656      17.861
  C       77.128     -35.725      18.367
  O       77.855     -36.699      18.212
  C       77.558     -34.564      19.160
  C       76.694     -33.566      19.365
  O       75.151     -25.667      20.542
  O       76.692     -27.549      21.352
  H       74.741     -33.625      21.614
  H       75.543     -25.235      21.324
  H       75.551     -36.436      17.304
  H       78.563     -34.576      19.559
  H       76.978     -32.706      19.963
  H       73.429     -32.937      19.083
  H       75.700     -31.724      20.778
  H       74.116     -29.947      21.236
  H       73.243     -29.843      18.565
  H       76.151     -29.545      19.431
  H       75.495     -28.970      17.895
  P       71.504     -29.992      21.384
  C       72.773     -30.287      23.650
  O       71.582     -30.461      22.913
  O       70.054     -30.478      20.905
  O       71.769     -28.547      21.116
  H       69.978     -31.446      20.869
  H       73.300     -29.376      23.353
  H       73.426     -31.148      23.492
  H       72.526     -30.221      24.712
  H       78.735     -26.572      18.079
  H       78.281     -28.031      18.926
  H       78.742     -26.606      19.826

 3  4  5  6  7  8  9  10  11  12  13  23  28  29  30  31  32 0
 6-311+G(2d,p)
 ****
 33  34 0
 6-311+G(2d,p)
 ****
 1  2  14  15  16  17  18  19  20  21  22  24  25  26 0
 3-21G
 ****
 27  35  36  37  38  39  40  41  42  43  44  45 0
 3-21G
 ****


