%nproc=1
%NoSave
%Mem=1900MB
#P OB98/GEN NMR

erre ene a

0 1
  C     -305.954     124.588     105.316
  O     -305.707     125.934     105.721
  P     -306.417     127.100     104.885
  C     -308.953     127.230     105.563
  O     -307.622     127.674     105.774
  C     -309.948     128.019     106.437
  O     -309.522     127.927     107.818
  C     -310.032     129.515     106.135
  O     -311.244     130.023     106.687
  C     -308.854     130.052     106.924
  O     -308.960     131.456     107.139
  C     -308.879     129.175     108.197
  N     -307.541     128.906     108.761
  C     -306.818     129.975     109.302
  O     -307.235     131.134     109.337
  N     -305.567     129.683     109.773
  C     -304.992     128.445     109.796
  O     -303.831     128.253     110.154
  C     -305.841     127.340     109.347
  C     -307.047     127.616     108.848
  O     -307.143     126.322     103.696
  O     -305.474     128.145     104.387
  H     -309.150     131.861     106.262
  H     -306.657     126.452     102.857
  H     -305.011     130.458     110.105
  H     -305.440     126.331     109.411
  H     -307.682     126.804     108.489
  H     -309.478     129.645     108.989
  H     -307.926     129.879     106.370
  H     -309.963     129.771     105.076
  H     -310.941     127.553     106.359
  H     -309.025     126.157     105.779
  H     -309.215     127.351     104.504
  P     -312.171     130.945     105.751
  C     -312.974     128.724     104.733
  O     -313.354     130.001     105.215
  O     -311.459     131.746     104.711
  O     -312.925     131.883     106.812
  H     -313.283     132.674     106.353
  H     -313.807     128.028     104.891
  H     -312.090     128.346     105.250
  H     -312.770     128.790     103.662
  H     -305.420     123.919     105.958
  H     -305.625     124.453     104.307
  H     -307.002     124.383     105.379

 3  4  5  6  7  8  9  10  11  12  13  23  28  29  30  31  32 0
 6-311+G(2d,p)
 ****
 33  34 0
 6-311+G(2d,p)
 ****
 1  2  14  15  16  17  18  19  20  21  22  24  25  26  27 0
 3-21G
 ****
 35  36  37  38  39  40  41  42  43  44  45 0
 3-21G
 ****


