%nproc=1
%NoSave
%Mem=1900MB
#P OB98/GEN NMR

erre ene a

0 1
  C      327.709    -168.049     194.700
  O      327.940    -168.255     193.320
  H      326.810    -167.442     194.819
  H      328.556    -167.522     195.147
  H      327.559    -169.006     195.205
  P      329.216    -169.145     192.935
  C      327.853    -170.051     190.906
  O      329.067    -169.482     191.374
  C      328.026    -170.572     189.473
  O      328.146    -169.429     188.572
  C      329.284    -171.431     189.272
  O      329.017    -172.362     188.211
  C      330.291    -170.396     188.797
  O      331.429    -171.015     188.242
  C      329.397    -169.583     187.866
  N      330.712    -166.494     184.009
  C      330.126    -167.710     184.027
  N      329.795    -168.466     185.093
  C      330.112    -167.837     186.239
  C      330.703    -166.593     186.378
  C      331.015    -165.907     185.191
  N      331.620    -164.673     185.170
  N      330.878    -166.284     187.717
  C      330.396    -167.323     188.368
  N      329.931    -168.287     187.518
  O      328.923    -170.542     193.657
  O      330.538    -168.578     193.331
  H      331.170    -171.739     187.633
  H      329.369    -170.568     194.524
  H      329.893    -168.132     183.054
  H      330.366    -167.432     189.447
  H      329.188    -170.118     186.932
  H      330.644    -169.784     189.634
  H      329.587    -171.976     190.168
  H      327.119    -171.112     189.177
  H      327.076    -169.280     190.929
  H      327.559    -170.878     191.560
  H      331.826    -164.255     184.277
  H      331.869    -164.232     186.045
  P      328.447    -173.822     188.574
  C      327.218    -174.100     186.281
  O      328.159    -174.616     187.212
  O      326.962    -173.481     189.079
  O      329.205    -174.569     189.622
  H      326.673    -174.161     189.718
  H      327.155    -174.755     185.438
  H      327.533    -173.130     185.956
  H      326.258    -174.026     186.748

 6  7  8  9  10  11  12  13  14  15  25  28  32  33  34  35 0
 6-311+G(2d,p)
 ****
 36  37  40 0
 6-311+G(2d,p)
 ****
 1  2  3  4  5  16  17  18  19  20  21  22  23  24 0
 3-21G
 ****
 26  27  29  30  31  38  39 41  42  43  44  45  46  47  48 0
 3-21G
 ****


