%nproc=1
%NoSave
%Mem=1900MB
#P OB98/GEN NMR

erre ene a

0 1
  C       14.374     -74.044     248.870
  O       14.078     -75.395     249.233
  P       12.556     -75.862     249.040
  C       11.183     -75.803     246.839
  O       12.351     -76.263     247.500
  C       11.100     -76.379     245.424
  O       12.266     -76.072     244.638
  C       10.966     -77.895     245.396
  O        9.624     -78.270     245.660
  C       11.410     -78.221     243.977
  O       10.323     -78.070     243.039
  C       12.497     -77.167     243.712
  N       16.712     -78.485     241.226
  C       15.453     -78.187     240.739
  N       15.304     -78.220     239.398
  N       14.434     -77.880     241.500
  C       14.730     -77.885     242.821
  C       15.942     -78.137     243.421
  C       17.061     -78.477     242.568
  O       18.198     -78.727     242.948
  N       15.869     -77.984     244.784
  C       14.585     -77.768     245.010
  N       13.865     -77.633     243.850
  O       11.729     -74.502     249.200
  O       12.119     -76.890     250.031
  H        9.897     -77.206     243.185
  H       11.225     -74.516     250.036
  H       17.458     -78.723     240.596
  H       14.138     -77.674     245.987
  H       12.417     -76.753     242.699
  H       11.753     -79.254     243.883
  H       16.046     -78.445     238.753
  H       11.655     -78.349     246.119
  H       14.391     -77.996     239.021
  H       10.229     -75.921     244.933
  H       11.183     -74.713     246.793
  H       10.307     -76.093     247.431
  P        9.181     -78.442     247.190
  C        8.006     -76.960     248.967
  O        8.396     -77.114     247.616
  O       10.569     -78.341     247.983
  O        8.482     -79.725     247.492
  H       10.607     -79.035     248.668
  H        7.985     -75.894     249.207
  H        8.697     -77.463     249.648
  H        7.003     -77.374     249.101
  H       15.412     -73.848     249.041
  H       13.783     -73.378     249.463
  H       14.148     -73.895     247.835

 3  4  5  6  7  8  9  10  11  12  23  26  30  31 0
 6-311+G(2d,p)
 ****
 33  35  36  37  38 0
 6-311+G(2d,p)
 ****
 1  2  13  14  15  16  17  18  19  20  21  22  24  25 0
 3-21G
 ****
 27  28  29  32  34  39  40  41  42  43  44  45  46  47  48  49 0
 3-21G
 ****


