%nproc=1
%NoSave
%Mem=1900MB
#P OB98/GEN NMR

erre ene a

0 1
  C     -450.898    -208.785     -41.717
  O     -450.552    -208.699     -40.345
  P     -451.658    -209.141     -39.268
  C     -451.416    -206.780     -38.131
  O     -452.263    -207.779     -38.677
  C     -451.934    -205.386     -38.507
  O     -452.212    -205.333     -39.924
  C     -453.234    -204.989     -37.822
  O     -453.023    -204.595     -36.474
  C     -453.721    -203.873     -38.744
  O     -453.039    -202.644     -38.438
  C     -453.289    -204.395     -40.126
  N     -454.383    -205.009     -40.881
  C     -455.312    -204.131     -41.432
  O     -455.243    -202.907     -41.314
  N     -456.349    -204.716     -42.119
  C     -456.574    -206.054     -42.247
  O     -457.539    -206.522     -42.834
  C     -455.574    -206.930     -41.609
  C     -454.546    -206.374     -40.971
  O     -450.720    -209.711     -38.103
  O     -452.652    -210.112     -39.813
  H     -449.841    -209.293     -38.107
  H     -453.440    -201.954     -39.004
  H     -457.023    -204.101     -42.551
  H     -455.726    -207.998     -41.682
  H     -453.807    -207.005     -40.485
  H     -452.872    -203.577     -40.727
  H     -454.797    -203.685     -38.645
  H     -453.942    -205.827     -37.858
  H     -451.143    -204.659     -38.286
  H     -450.402    -206.913     -38.527
  H     -451.387    -206.894     -37.040
  P     -453.696    -205.524     -35.346
  C     -455.654    -203.791     -35.289
  O     -455.252    -205.140     -35.320
  O     -453.105    -204.857     -34.007
  O     -453.391    -206.977     -35.500
  H     -453.105    -203.887     -34.038
  H     -456.689    -203.725     -35.628
  H     -455.025    -203.172     -35.937
  H     -455.595    -203.417     -34.262
  H     -450.071    -208.461     -42.314
  H     -451.745    -208.160     -41.911
  H     -451.139    -209.799     -41.961

 3  4  5  6  7  8  9  10  11  12  13  24  28  29  30  31  32 0
 6-311+G(2d,p)
 ****
 33  34 0
 6-311+G(2d,p)
 ****
 1  2  14  15  16  17  18  19  20  21  22  23  25  26  27 0
 3-21G
 ****
 35  36  37  38  39  40  41  42  43  44  45 0
 3-21G
 ****


