%nproc=1
%NoSave
%Mem=1900MB
#P OB98/GEN NMR

erre ene a

0 1
  C      555.333    -255.097     143.495
  O      556.295    -255.889     144.162
  H      554.379    -255.630     143.491
  H      555.639    -254.921     142.461
  H      555.194    -254.137     144.006
  P      557.735    -255.264     144.472
  C      557.395    -255.412     147.029
  O      558.178    -255.809     145.912
  C      558.000    -255.950     148.330
  O      558.034    -257.407     148.268
  C      559.447    -255.466     148.603
  O      559.605    -255.412     150.024
  C      560.242    -256.606     148.000
  O      561.600    -256.563     148.343
  C      559.408    -257.799     148.511
  N      559.704    -259.084     147.883
  C      561.014    -259.537     147.929
  O      561.945    -258.933     148.465
  N      561.250    -260.744     147.321
  C      560.320    -261.522     146.710
  O      560.580    -262.617     146.209
  C      558.942    -260.987     146.684
  C      558.703    -259.814     147.269
  O      557.854    -253.786     144.291
  O      558.709    -256.057     143.473
  H      558.918    -255.497     142.706
  H      562.001    -255.745     147.974
  H      562.197    -261.087     147.349
  H      558.181    -261.579     146.202
  H      557.705    -259.393     147.282
  H      559.523    -257.890     149.595
  H      560.203    -256.548     146.904
  H      559.653    -254.487     148.170
  H      557.333    -255.682     149.165
  H      556.383    -255.826     146.898
  H      557.331    -254.325     147.064
  P      559.573    -254.050     150.867
  C      558.080    -255.492     152.414
  O      558.946    -254.365     152.313
  O      558.906    -252.910     150.162
  O      561.112    -253.714     151.183
  H      561.212    -252.749     151.313
  H      557.735    -255.588     153.422
  H      558.612    -256.377     152.134
  H      557.242    -255.358     151.762

 6  7  8  9  10  11  12  13  14  15  16  27  31  32  33  34  35 0
 6-311+G(2d,p)
 ****
 36  37 0
 6-311+G(2d,p)
 ****
 1  2  3  4  5  17  18  19  20  21  22  23  24  25 0
 3-21G
 ****
 26  28  29  30  38  39  40  41  42  43  44  45 0
 3-21G
 ****


