%nproc=1
%NoSave
%Mem=1900MB
#P OB98/GEN NMR

erre ene a

0 1
  C     -421.074     655.358     139.871
  O     -421.321     654.344     140.856
  P     -421.521     652.790     140.495
  C     -422.371     652.467     142.919
  O     -421.559     651.961     141.867
  C     -422.578     651.413     144.005
  O     -423.392     650.327     143.504
  C     -421.312     650.733     144.497
  O     -420.533     651.569     145.326
  C     -421.890     649.506     145.212
  O     -422.288     649.821     146.553
  C     -423.140     649.190     144.357
  N     -423.000     647.972     143.579
  C     -423.429     646.792     144.189
  O     -423.821     646.792     145.355
  N     -423.391     645.621     143.460
  C     -422.865     645.624     142.274
  N     -422.872     644.439     141.592
  C     -422.277     646.821     141.648
  C     -422.377     647.949     142.349
  O     -420.534     652.266     139.500
  O     -423.017     652.681     139.934
  H     -423.083     651.915     139.330
  H     -422.726     649.019     146.913
  H     -421.814     646.766     140.673
  H     -421.988     648.883     141.959
  H     -424.024     649.109     145.000
  H     -421.175     648.685     145.271
  H     -420.724     650.401     143.636
  H     -423.107     651.889     144.842
  H     -423.292     643.643     142.052
  H     -423.348     652.744     142.498
  H     -422.511     644.336     140.658
  H     -421.907     653.371     143.332
  P     -419.117     650.994     145.821
  C     -418.553     652.019     148.141
  O     -418.428     652.114     146.737
  O     -418.227     650.982     144.491
  O     -419.187     649.631     146.442
  H     -417.671     650.177     144.473
  H     -417.687     652.495     148.606
  H     -418.592     650.971     148.471
  H     -419.458     652.526     148.465
  H     -420.977     656.308     140.354
  H     -421.891     655.391     139.180
  H     -420.170     655.131     139.345

 3  4  5  6  7  8  9  10  11  12  13  24  27  28  29  30  32 0
 6-311+G(2d,p)
 ****
 34  35 0
 6-311+G(2d,p)
 ****
 1  2  14  15  16  17  18  19  20  21  22  23  25  26 0
 3-21G
 ****
 31  33  36  37  38  39  40  41  42  43  44  45  46 0
 3-21G
 ****


