%nproc=1
%NoSave
%Mem=1900MB
#P OB98/GEN NMR

erre ene a

0 1
  C      384.708    -898.360     938.495
  O      384.592    -897.610     937.302
  P      384.277    -898.410     935.933
  C      381.829    -897.540     935.609
  O      382.669    -898.620     935.929
  C      381.079    -897.830     934.313
  O      380.332    -899.060     934.417
  C      380.095    -896.750     933.894
  O      380.730    -895.670     933.231
  C      379.161    -897.520     932.993
  O      379.696    -897.670     931.661
  C      379.075    -898.880     933.701
  N      374.037    -899.090     934.052
  C      374.835    -898.760     932.959
  N      374.192    -898.500     931.790
  N      376.154    -898.720     933.025
  C      376.608    -898.980     934.262
  C      375.924    -899.280     935.425
  C      374.501    -899.410     935.337
  O      373.756    -899.780     936.214
  N      376.795    -899.510     936.474
  C      377.991    -899.310     935.959
  N      377.959    -899.030     934.603
  O      384.850    -899.880     936.255
  O      384.830    -897.830     934.692
  H      379.995    -896.810     931.332
  H      385.736    -900.000     935.872
  H      373.030    -899.140     933.964
  H      378.910    -899.400     936.495
  H      379.003    -899.720     932.977
  H      378.176    -897.020     932.871
  H      373.201    -898.500     931.713
  H      379.536    -896.400     934.783
  H      374.785    -898.270     931.011
  H      381.826    -897.970     933.517
  H      382.449    -896.630     935.478
  H      381.134    -897.380     936.415
  P      380.351    -894.170     933.657
  C      382.784    -893.840     934.580
  O      381.373    -893.720     934.814
  O      378.958    -894.380     934.436
  O      380.219    -893.220     932.528
  H      378.381    -893.600     934.250
  H      383.283    -893.070     935.159
  H      383.007    -893.750     933.514
  H      383.105    -894.830     934.940
  H      384.916    -897.701     939.312
  H      385.505    -899.067     938.396
  H      383.791    -898.879     938.680

 3  4  5  6  7  8  9  10  11  12  23  26  30  31 0
 6-311+G(2d,p)
 ****
 33  35  36  37  38 0
 6-311+G(2d,p)
 ****
 1  2  13  14  15  16  17  18  19  20  21  22  24  25 0
 3-21G
 ****
 27  28  29  32  34  39  40  41  42  43  44  45  46  47  48  49 0
 3-21G
 ****


