%nproc=1
%NoSave
%Mem=1900MB
#P OB98/GEN NMR

erre ene a

0 1
  C      -72.099    -110.142    -203.852
  O      -72.608    -110.488    -205.129
  P      -72.859    -109.319    -206.195
  C      -75.435    -108.976    -206.216
  O      -74.305    -109.557    -206.846
  C      -76.470    -108.554    -207.261
  O      -75.877    -107.560    -208.154
  C      -76.982    -109.706    -208.136
  O      -78.357    -109.432    -208.452
  C      -76.136    -109.569    -209.387
  O      -76.696    -110.221    -210.517
  C      -76.064    -108.043    -209.500
  N      -75.000    -107.586    -210.390
  C      -75.360    -106.740    -211.436
  O      -76.510    -106.360    -211.652
  N      -74.346    -106.382    -212.286
  C      -73.065    -106.847    -212.250
  O      -72.234    -106.576    -213.112
  C      -72.741    -107.736    -211.126
  C      -73.708    -108.060    -210.261
  O      -71.846    -109.681    -207.379
  O      -72.637    -107.942    -205.670
  H      -76.851    -111.150    -210.272
  H      -71.042    -109.129    -207.320
  H      -74.587    -105.759    -213.042
  H      -71.727    -108.106    -211.056
  H      -73.502    -108.730    -209.435
  H      -77.027    -107.644    -209.850
  H      -75.146    -110.003    -209.207
  H      -76.888    -110.690    -207.665
  H      -77.310    -108.064    -206.748
  H      -75.119    -108.099    -205.650
  H      -75.873    -109.691    -205.509
  P      -79.451    -110.545    -208.064
  C      -80.196    -110.391    -210.569
  O      -80.570    -110.505    -209.211
  O      -80.159    -109.838    -206.811
  O      -78.866    -111.880    -207.747
  H      -80.327    -108.891    -206.959
  H      -79.254    -110.910    -210.772
  H      -80.086    -109.335    -210.826
  H      -80.980    -110.829    -211.189
  H      -71.988    -111.027    -203.261
  H      -72.778    -109.472    -203.367
  H      -71.147    -109.666    -203.964

 3  4  5  6  7  8  9  10  11  12  13  23  28  29  30  31  32 0
 6-311+G(2d,p)
 ****
 33  34 0
 6-311+G(2d,p)
 ****
 1  2  14  15  16  17  18  19  20  21  22  24  25  26 0
 3-21G
 ****
 27  35  36  37  38  39  40  41  42  43  44  45 0
 3-21G
 ****


