%nproc=1
%NoSave
%Mem=1900MB
#P OB98/GEN NMR

erre ene a

0 1
  C     -896.727     337.960     227.598
  O     -897.400     337.848     228.832
  H     -896.548     336.957     227.204
  H     -895.764     338.456     227.744
  H     -897.326     338.517     226.871
  P     -898.042     339.161     229.489
  C     -900.459     338.476     228.916
  O     -899.427     339.422     228.717
  C     -901.640     338.743     227.973
  O     -901.212     338.480     226.604
  C     -902.870     337.866     228.245
  O     -904.030     338.629     227.879
  C     -902.657     336.723     227.268
  O     -903.847     335.997     227.050
  C     -902.097     337.482     226.062
  N     -901.416     336.603     225.113
  C     -902.128     336.262     223.965
  O     -903.279     336.634     223.748
  N     -901.489     335.428     223.087
  C     -900.258     334.871     223.275
  O     -899.744     334.105     222.467
  C     -899.573     335.231     224.525
  C     -900.173     336.073     225.373
  O     -897.142     340.346     229.578
  O     -898.540     338.679     230.931
  H     -904.243     335.733     227.907
  H     -898.500     339.424     231.567
  H     -901.984     335.178     222.250
  H     -898.595     334.799     224.706
  H     -899.691     336.360     226.300
  H     -902.902     338.005     225.522
  H     -901.914     336.020     227.653
  H     -902.941     337.535     229.283
  H     -901.895     339.806     228.029
  H     -900.796     338.555     229.956
  H     -900.075     337.466     228.745
  P     -904.883     339.449     228.959
  C     -904.242     341.711     227.906
  O     -904.268     340.923     229.094
  O     -905.069     338.743     230.262
  O     -906.296     339.705     228.247
  H     -906.996     339.784     228.923
  H     -903.812     342.667     228.121
  H     -905.240     341.842     227.543
  H     -903.654     341.215     227.162

 6  7  8  9  10  11  12  13  14  15  16  26  31  32  33  34  35 0
 6-311+G(2d,p)
 ****
 36  37 0
 6-311+G(2d,p)
 ****
 1  2  3  4  5  17  18  19  20  21  22  23  24  25 0
 3-21G
 ****
 27  28  29  30  38  39  40  41  42  43  44  45 0
 3-21G
 ****


