%nproc=1
%NoSave
%Mem=1900MB
#P OB98/GEN NMR

erre ene a

0 1
  C       27.432    -340.418     143.918
  O       26.804    -339.151     143.868
  H       28.142    -340.489     143.091
  H       26.687    -341.212     143.812
  H       27.972    -340.533     144.861
  P       25.732    -338.837     145.022
  C       25.891    -338.895     147.607
  O       26.453    -339.322     146.371
  C       26.072    -339.972     148.676
  O       25.218    -341.097     148.407
  C       27.485    -340.534     148.769
  O       28.324    -339.670     149.521
  C       27.220    -341.841     149.501
  O       27.069    -341.587     150.912
  C       25.877    -342.296     148.904
  N       25.465    -347.247     147.607
  C       25.468    -346.628     148.810
  N       25.623    -345.317     149.081
  C       25.792    -344.614     147.950
  C       25.808    -345.104     146.650
  C       25.626    -346.488     146.497
  N       25.613    -347.110     145.266
  N       26.006    -344.083     145.744
  C       26.051    -342.989     146.479
  N       25.963    -343.262     147.821
  O       24.355    -339.354     144.784
  O       25.853    -337.243     145.124
  H       26.246    -341.075     151.031
  H       26.779    -336.963     145.025
  H       25.324    -347.278     149.668
  H       26.129    -341.981     146.087
  H       25.222    -342.737     149.664
  H       28.043    -342.551     149.392
  H       27.893    -340.755     147.779
  H       25.756    -339.545     149.638
  H       24.829    -338.665     147.485
  H       25.648    -348.118     145.255
  H       25.857    -346.563     144.453
  H       26.411    -337.977     147.904
  P       29.906    -339.636     149.253
  C       31.405    -339.509     147.167
  O       30.107    -339.810     147.671
  O       30.707    -340.575     150.087
  O       30.323    -338.115     149.506
  H       31.190    -338.068     149.949
  H       31.420    -339.660     146.108
  H       32.125    -340.152     147.629
  H       31.645    -338.489     147.385

 6  7  8  9  10  11  12  13  14  15  25  28  32  33  34  35 0
 6-311+G(2d,p)
 ****
 36  39  40 0
 6-311+G(2d,p)
 ****
 1  2  3  4  5  16  17  18  19  20  21  22  23  24 0
 3-21G
 ****
 26  27  29  30  31  37  38  41  42  43  44  45  46  47 0
 3-21G
 ****
 48 0
 3-21G
 ****


