%nproc=1
%NoSave
%Mem=1900MB
#P OB98/GEN NMR

erre ene a

0 1
  C      357.306    -423.549      94.729
  O      356.220    -423.302      95.591
  H      357.560    -422.620      94.210
  H      357.021    -424.298      93.986
  H      358.185    -423.895      95.279
  P      355.936    -424.328      96.785
  C      354.817    -422.827      98.564
  O      354.628    -423.829      97.573
  C      353.487    -422.240      99.038
  O      352.972    -421.333      98.041
  C      352.416    -423.314      99.252
  O      352.431    -423.910     100.538
  C      351.129    -422.523      99.026
  O      350.669    -421.912     100.242
  C      351.540    -421.455      98.012
  N      348.046    -420.666      94.362
  C      348.014    -420.280      95.690
  N      346.898    -419.641      96.095
  N      348.989    -420.524      96.530
  C      349.993    -421.256      96.004
  C      350.122    -421.713      94.711
  C      349.078    -421.380      93.768
  O      349.066    -421.682      92.583
  N      351.266    -422.464      94.554
  C      351.772    -422.534      95.770
  N      351.079    -421.749      96.666
  O      357.109    -424.013      97.836
  O      355.942    -425.778      96.406
  H      350.459    -422.627     100.879
  H      357.345    -424.827      98.315
  H      347.284    -420.428      93.755
  H      352.660    -423.094      96.046
  H      351.133    -420.470      98.278
  H      350.323    -423.181      98.682
  H      346.086    -419.506      95.513
  H      352.482    -424.086      98.480
  H      346.755    -419.511      97.101
  H      353.655    -421.654      99.951
  H      355.427    -422.047      98.103
  H      355.378    -423.229      99.410
  P      351.564    -425.217     100.853
  C      353.133    -427.089     101.809
  O      352.258    -426.008     102.048
  O      351.845    -426.141      99.578
  O      350.104    -424.981     101.063
  H      351.113    -426.075      98.935
  H      353.486    -427.475     102.742
  H      353.964    -426.753     101.225
  H      352.612    -427.859     101.278

 6  7  8  9  10  11  12  13  14  15  26  29  33  34 0
 6-311+G(2d,p)
 ****
 36  38  39  40  41 0
 6-311+G(2d,p)
 ****
 1  2  3  4  5  16  17  18  19  20  21  22  23  24  25 0
 3-21G
 ****
 27  28  30  31  32  35  37  42  43  44  45  46  47 0
 3-21G
 ****
 48  49 0
 3-21G
 ****


