%nproc=1
%NoSave
%Mem=1900MB
#P OB98/GEN NMR

erre ene a

0 1
  C      474.534     -29.726     193.903
  O      474.777     -28.505     193.239
  H      475.497     -30.211     194.105
  H      473.940     -30.389     193.271
  H      474.021     -29.559     194.855
  P      473.546     -27.516     192.972
  C      472.250     -27.530     190.743
  O      472.574     -28.249     191.929
  C      470.744     -27.597     190.493
  O      470.300     -28.970     190.526
  C      469.912     -26.871     191.542
  O      469.965     -25.470     191.371
  C      468.547     -27.497     191.307
  O      467.873     -26.876     190.209
  C      468.922     -28.960     190.963
  N      468.718     -29.861     192.096
  C      468.017     -31.034     191.831
  O      467.588     -31.333     190.717
  N      467.770     -31.835     192.916
  C      468.023     -31.513     194.216
  O      467.563     -32.139     195.165
  C      468.821     -30.296     194.430
  C      469.116     -29.529     193.373
  O      473.908     -26.113     192.619
  O      472.712     -27.578     194.339
  H      472.899     -26.776     194.866
  H      467.159     -27.491     189.952
  H      467.222     -32.666     192.737
  H      469.104     -30.043     195.442
  H      469.677     -28.607     193.508
  H      468.318     -29.319     190.116
  H      467.912     -27.409     192.188
  H      470.261     -27.147     192.543
  H      470.544     -27.195     189.489
  H      472.781     -27.985     189.901
  H      472.579     -26.492     190.856
  P      470.610     -24.539     192.506
  C      468.464     -23.717     193.656
  O      469.629     -24.535     193.771
  O      471.054     -23.191     192.047
  O      471.861     -25.397     193.038
  H      472.652     -24.826     193.045
  H      467.886     -23.791     194.553
  H      467.877     -24.048     192.825
  H      468.757     -22.699     193.503

 6  7  8  9  10  11  12  13  14  15  16  27  31  32  33  34  35 0
 6-311+G(2d,p)
 ****
 36  37 0
 6-311+G(2d,p)
 ****
 1  2  3  4  5  17  18  19  20  21  22  23  24  25 0
 3-21G
 ****
 26  28  29  30  38  39  40  41  42  43  44  45 0
 3-21G
 ****


