%nproc=1
%NoSave
%Mem=1900MB
#P OB98/GEN NMR

erre ene a

0 1
  C      152.019      82.639      79.443
  O      152.393      81.422      80.058
  H      152.298      82.597      78.387
  H      152.547      83.474      79.911
  H      150.939      82.794      79.513
  P      151.917      81.138      81.562
  C      154.278      81.685      82.446
  O      152.888      81.977      82.522
  C      155.075      82.753      83.188
  O      154.937      84.029      82.527
  C      154.619      82.981      84.626
  O      155.074      81.939      85.470
  C      155.236      84.345      84.905
  O      156.628      84.222      85.225
  C      155.042      85.054      83.543
  N      153.880      85.938      83.515
  C      154.075      87.235      83.979
  O      155.151      87.630      84.432
  N      152.984      88.065      83.924
  C      151.727      87.704      83.536
  O      150.769      88.474      83.555
  C      151.568      86.312      83.088
  C      152.634      85.509      83.096
  O      151.758      79.700      81.932
  O      150.529      81.930      81.673
  H      156.973      85.132      85.328
  H      149.785      81.306      81.576
  H      153.107      89.004      84.268
  H      150.583      85.992      82.781
  H      152.537      84.477      82.775
  H      155.930      85.649      83.295
  H      154.762      84.855      85.746
  H      153.527      83.072      84.671
  H      156.138      82.471      83.155
  H      154.578      81.673      81.392
  H      154.455      80.696      82.879
  P      154.180      81.431      86.694
  C      155.521      82.895      88.314
  O      154.226      82.565      87.833
  O      154.486      80.052      87.181
  O      152.677      81.529      86.145
  H      152.335      80.633      85.954
  H      155.440      83.654      89.064
  H      156.121      83.255      87.505
  H      155.977      82.024      88.736

 6  7  8  9  10  11  12  13  14  15  16  26  31  32  33  34  35 0
 6-311+G(2d,p)
 ****
 36  37 0
 6-311+G(2d,p)
 ****
 1  2  3  4  5  17  18  19  20  21  22  23  24  25 0
 3-21G
 ****
 27  28  29  30  38  39  40  41  42  43  44  45 0
 3-21G
 ****


