%nproc=1
%NoSave
%Mem=1900MB
#P OB98/GEN NMR

erre ene a

0 1
  C     -344.618     195.121     355.171
  O     -344.668     195.925     356.334
  H     -344.968     195.713     354.321
  H     -345.266     194.248     355.285
  H     -343.589     194.801     354.979
  P     -344.166     195.242     357.698
  C     -346.526     194.238     358.044
  O     -345.140     193.980     357.889
  C     -347.184     193.143     358.883
  O     -348.586     193.409     359.059
  C     -347.101     191.749     358.266
  O     -345.837     191.161     358.516
  C     -348.213     191.040     359.026
  O     -347.742     190.653     360.331
  C     -349.284     192.142     359.159
  N     -354.306     191.444     358.353
  C     -353.541     191.255     359.449
  N     -352.205     191.419     359.577
  C     -351.658     191.823     358.420
  C     -352.317     192.058     357.223
  C     -353.709     191.863     357.213
  N     -354.490     192.068     356.099
  N     -351.428     192.460     356.247
  C     -350.263     192.521     356.860
  N     -350.342     192.109     358.167
  O     -344.026     196.154     358.866
  O     -342.804     194.551     357.208
  H     -347.423     191.457     360.780
  H     -342.911     194.183     356.314
  H     -354.064     190.930     360.344
  H     -349.339     192.866     356.412
  H     -349.774     192.111     360.138
  H     -348.542     190.125     358.524
  H     -347.349     191.766     357.202
  H     -346.723     193.158     359.877
  H     -347.016     194.303     357.068
  H     -355.441     191.743     356.131
  H     -354.025     192.258     355.223
  H     -346.626     195.206     358.547
  P     -345.204     190.109     357.485
  C     -346.464     188.203     358.660
  O     -346.213     188.864     357.425
  O     -343.784     189.746     357.744
  O     -345.392     190.794     356.053
  H     -344.613     190.619     355.488
  H     -347.146     187.395     358.500
  H     -346.889     188.896     359.356
  H     -345.545     187.821     359.053

 6  7  8  9  10  11  12  13  14  15  25  28  32  33  34  35 0
 6-311+G(2d,p)
 ****
 36  39  40 0
 6-311+G(2d,p)
 ****
 1  2  3  4  5  16  17  18  19  20  21  22  23  24 0
 3-21G
 ****
 26  27  29  30  31  37  38  41  42  43  44  45  46  47 0
 3-21G
 ****
 48 0
 3-21G
 ****


