%nproc=1
%NoSave
%Mem=1900MB
#P OB98/GEN NMR

erre ene a

0 1
  C     -314.256     128.971    -388.726
  O     -314.710     128.689    -387.396
  P     -316.282     128.881    -387.108
  C     -316.528     126.914    -385.438
  O     -316.595     128.320    -385.634
  C     -316.948     126.532    -384.015
  O     -315.867     126.794    -383.067
  C     -318.178     127.280    -383.506
  O     -318.910     126.397    -382.648
  C     -317.583     128.391    -382.665
  O     -318.531     128.935    -381.756
  C     -316.404     127.651    -382.037
  N     -314.561     129.954    -377.866
  C     -315.590     129.105    -378.049
  N     -316.029     128.550    -379.200
  C     -315.257     128.926    -380.233
  C     -314.180     129.800    -380.203
  C     -313.831     130.334    -378.947
  N     -312.801     131.215    -378.768
  N     -313.667     129.980    -381.475
  C     -314.430     129.235    -382.253
  N     -315.381     128.557    -381.543
  O     -316.964     127.811    -388.078
  O     -316.776     130.264    -387.383
  H     -319.302     129.253    -382.265
  H     -317.404     128.263    -388.821
  H     -316.140     128.833    -377.144
  H     -314.336     129.156    -383.327
  H     -316.712     127.024    -381.188
  H     -317.228     129.207    -383.321
  H     -318.837     127.664    -384.299
  H     -317.143     125.446    -383.994
  H     -315.504     126.559    -385.621
  H     -312.635     131.577    -377.836
  H     -312.282     131.542    -379.570
  H     -317.150     126.416    -386.188
  P     -320.196     125.682    -383.289
  C     -319.823     123.416    -382.080
  O     -320.647     124.557    -382.244
  O     -319.597     124.849    -384.519
  O     -321.270     126.633    -383.724
  H     -320.281     124.714    -385.196
  H     -319.783     123.158    -381.019
  H     -318.799     123.591    -382.445
  H     -320.256     122.583    -382.635
  H     -313.200     128.806    -388.785
  H     -314.471     129.991    -388.968
  H     -314.757     128.327    -389.418

 3  4  5  6  7  8  9  10  11  12  22  25  29  30  31  32 0
 6-311+G(2d,p)
 ****
 33  36  37 0
 6-311+G(2d,p)
 ****
 1  2  13  14  15  16  17  18  19  20  21  23  24  26 0
 3-21G
 ****
 27  28  34  35  38  39  40  41  42  43  44  45  46  47  48 0
 3-21G
 ****


