%nproc=1
%NoSave
%Mem=1900MB
#P OB98/GEN NMR

erre ene a

0 1
  C     -852.466     125.413    -802.587
  O     -853.099     125.894    -801.398
  P     -853.071     124.935    -800.094
  C     -855.391     125.725    -799.181
  O     -853.993     125.601    -798.957
  C     -856.008     126.718    -798.208
  O     -855.431     126.605    -796.874
  C     -855.818     128.185    -798.607
  O     -856.777     128.579    -799.573
  C     -856.065     128.874    -797.283
  O     -857.475     128.983    -797.041
  C     -855.435     127.920    -796.267
  N     -852.505     131.068    -793.469
  C     -853.856     130.973    -793.648
  N     -854.546     130.123    -794.421
  C     -853.727     129.270    -795.033
  C     -852.334     129.239    -794.958
  C     -851.730     130.186    -794.138
  N     -850.353     130.239    -793.955
  N     -851.837     128.231    -795.760
  C     -852.909     127.657    -796.297
  N     -854.060     128.261    -795.903
  O     -851.571     125.152    -799.540
  O     -853.344     123.505    -800.379
  H     -857.610     129.668    -796.357
  H     -851.255     124.322    -799.151
  H     -854.454     131.717    -793.069
  H     -852.883     126.809    -796.972
  H     -856.019     127.843    -795.343
  H     -855.669     129.885    -797.247
  H     -854.791     128.360    -798.947
  H     -857.094     126.486    -798.133
  H     -855.869     124.737    -799.085
  H     -849.995     130.959    -793.313
  H     -849.768     129.585    -794.441
  H     -855.551     126.039    -800.219
  P     -856.354     129.730    -800.593
  C     -858.363     131.397    -800.486
  O     -857.709     130.334    -801.181
  O     -855.719     128.916    -801.833
  O     -855.376     130.745    -800.051
  H     -855.020     129.442    -802.266
  H     -859.076     131.873    -801.168
  H     -857.627     132.144    -800.148
  H     -858.886     130.992    -799.619
  H     -852.561     126.144    -803.362
  H     -852.934     124.502    -802.897
  H     -851.430     125.233    -802.391

 3  4  5  6  7  8  9  10  11  12  22  25  29  30  31  32 0
 6-311+G(2d,p)
 ****
 33  36  37 0
 6-311+G(2d,p)
 ****
 1  2  13  14  15  16  17  18  19  20  21  23  24  26 0
 3-21G
 ****
 27  28  34  35  38  39  40  41  42  43  44  45  46  47  48 0
 3-21G
 ****


