%nproc=1
%NoSave
%Mem=1900MB
#P OB98/GEN NMR

erre ene a

0 1
  C      198.369     196.076    -175.547
  O      199.141     195.782    -174.396
  P      200.582     195.114    -174.626
  C      201.930     197.224    -173.910
  O      201.603     196.308    -174.947
  C      203.445     197.293    -173.729
  O      203.940     196.048    -173.194
  C      204.228     197.520    -175.015
  O      204.141     198.871    -175.438
  C      205.619     197.078    -174.579
  O      206.252     198.118    -173.817
  C      205.300     195.877    -173.669
  N      208.473     192.088    -175.008
  C      208.683     193.248    -174.347
  N      207.792     194.215    -174.047
  C      206.570     193.892    -174.499
  C      206.210     192.758    -175.208
  C      207.226     191.824    -175.458
  N      207.007     190.643    -176.138
  N      204.867     192.784    -175.524
  C      204.422     193.909    -175.005
  N      205.409     194.607    -174.364
  O      200.421     194.376    -176.035
  O      201.020     194.174    -173.546
  H      207.153     197.808    -173.595
  H      200.946     193.552    -176.059
  H      209.701     193.422    -174.011
  H      203.400     194.256    -175.063
  H      205.954     195.829    -172.789
  H      206.278     196.837    -175.419
  H      203.856     196.861    -175.809
  H      203.663     198.089    -173.006
  H      201.477     196.892    -172.970
  H      207.817     190.102    -176.404
  H      206.114     190.517    -176.595
  H      201.521     198.206    -174.162
  P      204.592     199.204    -176.940
  C      202.149     198.743    -177.584
  O      203.508     198.438    -177.845
  O      205.891     198.286    -177.099
  O      204.779     200.653    -177.233
  H      205.731     197.374    -176.801
  H      201.526     198.198    -178.298
  H      201.971     199.815    -177.702
  H      201.883     198.428    -176.571
  H      197.439     196.514    -175.250
  H      198.181     195.174    -176.090
  H      198.904     196.762    -176.170

 3  4  5  6  7  8  9  10  11  12  22  25  29  30  31  32 0
 6-311+G(2d,p)
 ****
 33  36  37 0
 6-311+G(2d,p)
 ****
 1  2  13  14  15  16  17  18  19  20  21  23  24  26 0
 3-21G
 ****
 27  28  34  35  38  39  40  41  42  43  44  45  46  47  48 0
 3-21G
 ****


