%nproc=1
%NoSave
%Mem=1900MB
#P OB98/GEN NMR

erre ene a

0 1
  C     1382.428      61.167     107.121
  O     1383.606      61.839     107.541
  H     1382.706      60.158     106.790
  H     1381.975      61.704     106.284
  H     1381.730      61.089     107.954
  P     1383.422      63.358     108.034
  C     1382.024      65.102     106.741
  O     1383.082      64.171     106.693
  C     1381.635      65.561     105.339
  O     1380.973      64.496     104.628
  C     1380.695      66.757     105.291
  O     1381.420      67.966     105.420
  C     1380.094      66.609     103.895
  O     1381.018      67.144     102.925
  C     1380.002      65.080     103.732
  N     1376.411      61.749     102.179
  C     1377.522      62.212     101.569
  N     1378.405      63.138     102.012
  C     1378.045      63.587     103.232
  C     1376.943      63.204     103.975
  C     1376.100      62.243     103.412
  N     1374.963      61.776     104.031
  N     1376.877      63.899     105.175
  C     1377.977      64.630     105.185
  N     1378.703      64.502     104.014
  O     1384.532      63.898     108.874
  O     1381.999      63.276     108.757
  H     1381.035      68.123     103.077
  H     1381.382      62.724     108.242
  H     1377.749      61.773     100.600
  H     1378.309      65.240     106.013
  H     1380.271      64.759     102.715
  H     1379.158      67.154     103.780
  H     1379.886      66.672     106.034
  H     1382.571      65.784     104.787
  H     1382.300      65.981     107.348
  H     1374.325      61.221     103.474
  H     1374.655      62.244     104.881
  H     1381.172      64.612     107.224
  P     1380.915      69.136     106.406
  C     1378.985      70.822     106.211
  O     1379.943      70.039     105.505
  O     1382.009      69.865     107.114
  O     1379.898      68.388     107.410
  H     1379.751      68.966     108.187
  H     1378.396      71.379     105.513
  H     1379.491      71.497     106.869
  H     1378.348      70.178     106.781

 6  7  8  9  10  11  12  13  14  15  25  28  32  33  34  35 0
 6-311+G(2d,p)
 ****
 36  39  40 0
 6-311+G(2d,p)
 ****
 1  2  3  4  5  16  17  18  19  20  21  22  23  24 0
 3-21G
 ****
 26  27  29  30  31  37  38  41  42  43  44  45  46  47 0
 3-21G
 ****
 48 0
 3-21G
 ****


