%nproc=1
%NoSave
%Mem=1900MB
#P OB98/GEN NMR

erre ene a

0 1
  C      -60.116     216.857    -117.547
  O      -61.038     216.992    -118.624
  P      -61.870     215.705    -119.087
  C      -64.087     214.596    -118.159
  O      -63.337     215.752    -118.459
  C      -65.586     214.921    -118.268
  O      -65.953     215.922    -117.294
  C      -65.988     215.463    -119.636
  O      -66.281     214.424    -120.554
  C      -67.185     216.325    -119.293
  O      -68.350     215.505    -119.088
  C      -66.728     216.959    -117.958
  N      -65.914     218.193    -118.017
  C      -66.524     219.411    -118.306
  O      -67.724     219.550    -118.529
  N      -65.700     220.507    -118.322
  C      -64.398     220.543    -117.921
  O      -63.725     221.564    -117.900
  C      -63.842     219.259    -117.482
  C      -64.603     218.164    -117.559
  O      -61.163     214.498    -118.315
  O      -61.894     215.485    -120.568
  H      -69.068     216.093    -118.791
  H      -60.748     213.885    -118.949
  H      -66.110     221.385    -118.600
  H      -62.826     219.248    -117.110
  H      -64.200     217.207    -117.236
  H      -67.592     217.182    -117.322
  H      -67.432     217.001    -120.108
  H      -65.204     216.117    -120.030
  H      -66.154     214.009    -118.047
  H      -63.857     214.232    -117.156
  H      -63.822     213.795    -118.856
  P      -65.533     214.373    -121.968
  C      -63.315     213.180    -122.457
  O      -64.620     213.053    -121.927
  O      -64.840     215.625    -122.388
  O      -66.695     213.956    -122.992
  H      -67.077     214.752    -123.427
  H      -62.752     212.272    -122.226
  H      -62.803     214.038    -122.013
  H      -63.366     213.299    -123.542
  H      -59.644     217.799    -117.361
  H      -59.373     216.130    -117.802
  H      -60.638     216.540    -116.668

 3  4  5  6  7  8  9  10  11  12  13  23  28  29  30  31  32 0
 6-311+G(2d,p)
 ****
 33  34 0
 6-311+G(2d,p)
 ****
 1  2  14  15  16  17  18  19  20  21  22  24  25  26  27 0
 3-21G
 ****
 35  36  37  38  39  40  41  42  43  44  45 0
 3-21G
 ****


