%nproc=1
%NoSave
%Mem=1900MB
#P OB98/GEN NMR

erre ene a

0 1
  C      458.024    1425.393     622.635
  O      457.962    1426.211     623.776
  P      458.838    1427.592     623.742
  C      456.530    1428.809     623.758
  O      457.853    1428.731     624.317
  C      455.574    1429.498     624.724
  O      455.431    1428.675     625.926
  C      456.008    1430.869     625.221
  O      455.699    1431.885     624.286
  C      455.163    1431.004     626.478
  O      453.814    1431.364     626.131
  C      455.191    1429.563     627.048
  N      456.471    1430.526     631.905
  C      455.455    1430.935     631.147
  N      455.158    1430.653     629.853
  C      456.139    1429.892     629.310
  C      457.292    1429.413     629.973
  C      457.433    1429.775     631.302
  N      458.506    1429.327     632.101
  N      458.059    1428.680     629.094
  C      457.383    1428.667     627.981
  N      456.213    1429.368     628.057
  O      458.936    1427.911     622.182
  O      460.163    1427.492     624.398
  H      453.856    1432.266     625.765
  H      459.724    1428.475     622.017
  H      454.717    1431.577     631.634
  H      457.682    1428.155     627.090
  H      454.230    1429.274     627.470
  H      455.554    1431.759     627.160
  H      457.070    1430.872     625.481
  H      454.589    1429.528     624.235
  H      456.175    1427.810     623.513
  H      458.415    1429.486     633.071
  H      459.109    1428.601     631.716
  H      456.600    1429.398     622.808
  P      456.534    1433.259     624.396
  C      456.890    1433.368     621.807
  O      456.312    1433.972     622.976
  O      458.071    1432.741     624.363
  O      456.228    1434.047     625.615
  H      458.634    1433.375     624.803
  H      456.394    1433.792     620.918
  H      456.679    1432.276     621.812
  H      457.955    1433.532     621.778
  H      457.412    1424.528     622.783
  H      459.036    1425.089     622.468
  H      457.671    1425.939     621.785

 3  4  5  6  7  8  9  10  11  12  22  25  29  30  31  32 0
 6-311+G(2d,p)
 ****
 33  36  37 0
 6-311+G(2d,p)
 ****
 1  2  13  14  15  16  17  18  19  20  21  23  24  26 0
 3-21G
 ****
 27  28  34  35  38  39  40  41  42  43  44  45  46  47  48 0
 3-21G
 ****


