%nproc=1
%NoSave
%Mem=1900MB
#P OB98/GEN NMR

erre ene a

0 1
  C     -249.404    -422.769     -34.614
  O     -250.697    -422.943     -34.035
  P     -251.084    -424.385     -33.454
  C     -253.521    -424.179     -34.282
  O     -252.665    -424.413     -33.168
  C     -254.751    -423.360     -33.855
  O     -255.381    -424.015     -32.722
  C     -254.447    -421.931     -33.391
  O     -254.427    -420.893     -34.370
  C     -255.641    -421.651     -32.485
  O     -256.767    -421.227     -33.277
  C     -255.942    -423.007     -31.854
  N     -256.854    -422.247     -26.877
  C     -257.600    -422.012     -27.979
  N     -257.284    -422.241     -29.269
  C     -256.060    -422.785     -29.369
  C     -255.187    -423.083     -28.338
  C     -255.623    -422.787     -27.035
  N     -254.860    -423.015     -25.913
  N     -254.016    -423.622     -28.829
  C     -254.176    -423.631     -30.138
  N     -255.399    -423.148     -30.514
  O     -250.225    -424.897     -32.347
  O     -250.960    -425.323     -34.751
  H     -256.456    -420.482     -33.825
  H     -250.596    -426.188     -34.480
  H     -258.582    -421.579     -27.800
  H     -253.435    -423.976     -30.846
  H     -257.019    -423.204     -31.783
  H     -255.443    -420.848     -31.767
  H     -253.521    -421.900     -32.804
  H     -255.473    -423.339     -34.681
  H     -253.845    -425.136     -34.701
  H     -255.231    -422.736     -25.022
  H     -253.919    -423.365     -26.017
  H     -252.932    -423.680     -35.050
  P     -253.078    -420.497     -35.139
  C     -253.226    -417.920     -35.572
  O     -253.458    -419.231     -36.044
  O     -252.420    -421.611     -35.876
  O     -252.190    -419.854     -33.973
  H     -252.526    -419.005     -33.637
  H     -253.346    -417.222     -36.405
  H     -252.216    -417.824     -35.173
  H     -253.959    -417.673     -34.798
  H     -249.298    -421.760     -34.953
  H     -249.291    -423.437     -35.442
  H     -248.654    -422.979     -33.881

 3  4  5  6  7  8  9  10  11  12  22  25  29  30  31  32 0
 6-311+G(2d,p)
 ****
 33  36  37 0
 6-311+G(2d,p)
 ****
 1  2  13  14  15  16  17  18  19  20  21  23  24  26 0
 3-21G
 ****
 27  28  34  35  38  39  40  41  42  43  44  45  46  47  48 0
 3-21G
 ****


