%nproc=1
%NoSave
%Mem=1900MB
#P OB98/GEN NMR

erre ene a

0 1
  C      222.557     380.832     -83.058
  O      223.549     380.704     -82.065
  P      224.289     381.941     -81.386
  C      226.436     382.034     -82.879
  O      225.214     382.649     -82.489
  C      227.035     382.733     -84.108
  O      228.242     382.027     -84.497
  C      226.079     382.678     -85.311
  O      226.013     383.886     -86.057
  C      226.532     381.426     -86.048
  O      226.125     381.387     -87.408
  C      228.039     381.450     -85.803
  N      229.713     377.659     -88.747
  C      229.317     378.932     -89.110
  N      229.181     379.157     -90.435
  N      229.049     379.878     -88.247
  C      229.119     379.472     -86.956
  C      229.503     378.240     -86.479
  C      229.828     377.216     -87.442
  O      230.074     376.040     -87.165
  N      229.390     378.168     -85.117
  C      228.909     379.344     -84.767
  N      228.697     380.159     -85.859
  O      224.867     381.714     -80.026
  O      223.079     383.001     -81.232
  H      226.402     380.529     -87.776
  H      223.246     383.508     -80.412
  H      229.829     376.949     -89.461
  H      228.668     379.650     -83.757
  H      228.553     382.079     -86.532
  H      226.068     380.564     -85.554
  H      229.237     378.409     -91.109
  H      225.045     382.533     -84.976
  H      228.660     379.985     -90.711
  H      227.320     383.755     -83.842
  H      226.194     380.993     -83.117
  H      227.147     382.035     -82.048
  P      224.852     384.407     -87.021
  C      226.308     384.586     -89.127
  O      225.195     383.956     -88.522
  O      225.040     385.993     -87.078
  O      223.470     384.065     -86.574
  H      224.164     386.425     -87.073
  H      226.266     384.406     -90.207
  H      227.231     384.156     -88.735
  H      226.291     385.662     -88.944
  H      222.218     379.860     -83.351
  H      222.966     381.338     -83.908
  H      221.734     381.395     -82.670

 3  4  5  6  7  8  9  10  11  12  23  26  30  31 0
 6-311+G(2d,p)
 ****
 33  35  36  37  38 0
 6-311+G(2d,p)
 ****
 1  2  13  14  15  16  17  18  19  20  21  22  24  25 0
 3-21G
 ****
 27  28  29  32  34  39  40  41  42  43  44  45  46  47  48  49 0
 3-21G
 ****


