%nproc=1
%NoSave
%Mem=1900MB
#P OB98/GEN NMR

erre ene a

0 1
  C      120.602     235.567     272.301
  O      119.796     235.326     273.438
  H      121.319     234.753     272.165
  H      119.958     235.619     271.416
  H      121.135     236.518     272.409
  P      120.557     235.178     274.842
  C      121.166     237.709     274.828
  O      121.635     236.369     274.863
  C      122.249     238.607     274.243
  O      121.772     239.970     274.158
  C      123.519     238.667     275.082
  O      124.380     237.565     274.843
  C      124.130     239.964     274.581
  O      124.737     239.752     273.291
  C      122.887     240.857     274.439
  N      124.632     244.409     277.686
  C      125.148     243.897     276.550
  N      124.608     242.969     275.730
  C      123.408     242.575     276.181
  C      122.754     243.011     277.323
  C      123.419     243.975     278.102
  N      122.912     244.475     279.279
  N      121.544     242.359     277.468
  C      121.469     241.555     276.427
  N      122.585     241.626     275.638
  O      121.465     233.874     274.650
  O      119.686     235.110     276.054
  H      125.032     240.622     272.968
  H      121.800     233.562     275.512
  H      126.122     244.281     276.259
  H      120.636     240.901     276.205
  H      122.967     241.568     273.608
  H      124.906     240.350     275.243
  H      123.291     238.768     276.150
  H      122.464     238.265     273.222
  H      120.931     238.031     275.850
  H      123.526     245.046     279.839
  H      122.083     244.051     279.670
  H      120.259     237.760     274.220
  P      125.821     237.584     275.561
  C      125.392     235.266     276.652
  O      125.691     236.641     276.853
  O      125.893     239.054     276.183
  O      126.969     237.290     274.653
  H      126.813     239.383     276.195
  H      125.338     234.771     277.599
  H      126.160     234.817     276.058
  H      124.453     235.175     276.148

 6  7  8  9  10  11  12  13  14  15  25  28  32  33  34  35 0
 6-311+G(2d,p)
 ****
 36  39  40 0
 6-311+G(2d,p)
 ****
 1  2  3  4  5  16  17  18  19  20  21  22  23  24 0
 3-21G
 ****
 26  27  29  30  31  37  38  41  42  43  44  45  46  47 0
 3-21G
 ****
 48 0
 3-21G
 ****


