%nproc=1
%NoSave
%Mem=1900MB
#P OB98/GEN NMR

erre ene a

0 1
  C      403.264     127.205     142.696
  O      401.901     127.169     143.052
  H      403.668     128.187     142.956
  H      403.366     127.060     141.616
  H      403.838     126.440     143.224
  P      401.185     125.750     143.210
  C      401.502     125.743     145.771
  O      401.739     125.056     144.550
  C      401.208     124.774     146.917
  O      399.819     124.382     146.876
  C      402.034     123.488     146.825
  O      403.311     123.567     147.434
  C      401.139     122.488     147.554
  O      401.404     122.483     148.967
  C      399.725     123.007     147.274
  N      396.583     119.116     146.213
  C      397.180     119.445     147.415
  N      396.934     118.607     148.445
  N      397.955     120.486     147.573
  C      398.186     121.169     146.430
  C      397.668     120.928     145.178
  C      396.752     119.818     145.028
  O      396.184     119.496     143.989
  N      398.162     121.811     144.248
  C      399.042     122.525     144.922
  N      399.032     122.227     146.264
  O      401.859     124.860     142.057
  O      399.693     125.759     143.063
  H      401.491     123.410     149.260
  H      401.218     124.203     141.734
  H      395.972     118.321     146.158
  H      399.673     123.298     144.500
  H      399.103     122.979     148.178
  H      401.322     121.472     147.197
  H      396.416     117.748     148.358
  H      402.131     123.164     145.785
  H      397.501     118.703     149.290
  H      401.367     125.286     147.874
  H      400.643     126.393     145.602
  H      402.355     126.381     146.020
  P      404.482     122.563     147.014
  C      404.827     123.814     144.731
  O      404.635     122.602     145.427
  O      403.842     121.124     147.290
  O      405.776     122.748     147.736
  H      404.141     120.772     148.147
  H      404.905     123.615     143.683
  H      405.726     124.283     145.072
  H      403.996     124.464     144.910

 6  7  8  9  10  11  12  13  14  15  26  29  33  34 0
 6-311+G(2d,p)
 ****
 36  38  39  40  41 0
 6-311+G(2d,p)
 ****
 1  2  3  4  5  16  17  18  19  20  21  22  23  24  25 0
 3-21G
 ****
 27  28  30  31  32  35  37  42  43  44  45  46  47 0
 3-21G
 ****
 48  49 0
 3-21G
 ****


