%nproc=1
%NoSave
%Mem=1900MB
#P OB98/GEN NMR

erre ene a

0 1
  C      730.028     384.574     145.981
  O      729.609     383.308     146.440
  H      729.406     385.344     146.452
  H      729.909     384.644     144.896
  H      731.072     384.747     146.255
  P      730.321     382.030     145.791
  C      730.562     381.112     143.369
  O      729.838     381.949     144.265
  C      730.000     381.269     141.957
  O      729.793     382.672     141.664
  C      730.924     380.753     140.865
  O      730.880     379.346     140.722
  C      730.353     381.475     139.650
  O      729.242     380.771     139.088
  C      729.918     382.831     140.239
  N      730.846     383.900     139.877
  C      730.376     384.825     138.941
  O      729.256     384.763     138.442
  N      731.257     385.802     138.578
  C      732.551     385.915     138.998
  O      733.316     386.786     138.584
  C      733.000     384.902     139.975
  C      732.139     383.949     140.358
  O      729.572     380.799     146.490
  O      731.803     381.967     145.986
  H      730.164     380.383     147.148
  H      728.492     380.908     139.702
  H      730.941     386.479     137.898
  H      734.024     384.966     140.328
  H      732.456     383.188     141.065
  H      728.927     383.106     139.861
  H      731.106     381.568     138.867
  H      731.949     381.107     141.036
  H      729.025     380.761     141.908
  H      730.462     380.069     143.677
  H      731.623     381.390     143.403
  P      731.976     378.653     139.782
  C      732.240     379.015     137.191
  O      731.387     378.747     138.294
  O      731.794     377.116     140.196
  O      733.349     379.202     139.969
  H      730.890     376.934     140.517
  H      731.662     379.038     136.291
  H      732.982     378.247     137.119
  H      732.718     379.962     137.332

 6  7  8  9  10  11  12  13  14  15  16  27  31  32  33  34  35 0
 6-311+G(2d,p)
 ****
 36  37 0
 6-311+G(2d,p)
 ****
 1  2  3  4  5  17  18  19  20  21  22  23  24  25 0
 3-21G
 ****
 26  28  29  30  38  39  40  41  42  43  44  45 0
 3-21G
 ****


