%nproc=1
%NoSave
%Mem=1900MB
#P OB98/GEN NMR

erre ene a

0 1
  C      -25.798     118.664     -39.827
  O      -25.250     117.426     -40.227
  H      -26.237     118.549     -38.834
  H      -26.585     118.962     -40.524
  H      -25.030     119.441     -39.781
  P      -24.293     117.380     -41.510
  C      -22.039     117.984     -40.411
  O      -23.110     118.428     -41.232
  C      -20.689     118.408     -41.000
  O      -20.730     119.835     -41.288
  C      -19.496     118.163     -40.063
  O      -18.353     117.895     -40.885
  C      -19.353     119.512     -39.386
  O      -18.089     119.656     -38.778
  C      -19.651     120.451     -40.558
  N      -19.988     121.804     -40.117
  C      -18.928     122.609     -39.719
  O      -17.759     122.221     -39.694
  N      -19.253     123.870     -39.300
  C      -20.517     124.370     -39.188
  O      -20.754     125.498     -38.776
  C      -21.604     123.458     -39.581
  C      -21.295     122.237     -40.026
  O      -24.970     117.539     -42.830
  O      -23.541     115.971     -41.392
  H      -17.950     118.948     -38.112
  H      -23.326     115.630     -42.281
  H      -18.494     124.470     -39.018
  H      -22.618     123.821     -39.495
  H      -22.074     121.543     -40.323
  H      -18.784     120.520     -41.229
  H      -20.108     119.632     -38.602
  H      -19.662     117.346     -39.359
  H      -20.549     117.895     -41.958
  H      -22.091     116.893     -40.351
  H      -22.153     118.402     -39.405
  P      -17.377     116.650     -40.611
  C      -18.710     115.007     -42.083
  O      -18.218     115.292     -40.777
  O      -16.608     116.743     -39.335
  O      -16.386     116.627     -41.869
  H      -15.532     116.233     -41.608
  H      -19.250     114.083     -42.067
  H      -17.889     114.928     -42.764
  H      -19.361     115.795     -42.399

 6  7  8  9  10  11  12  13  14  15  16  26  31  32  33  34  35 0
 6-311+G(2d,p)
 ****
 36  37 0
 6-311+G(2d,p)
 ****
 1  2  3  4  5  17  18  19  20  21  22  23  24  25 0
 3-21G
 ****
 27  28  29  30  38  39  40  41  42  43  44  45 0
 3-21G
 ****


