%nproc=1
%NoSave
%Mem=1900MB
#P OB98/GEN NMR

erre ene a

0 1
  C      125.009     614.364     541.608
  O      125.783     613.278     541.147
  H      124.024     614.311     541.140
  H      125.483     615.308     541.322
  H      124.889     614.325     542.698
  P      127.230     613.023     541.808
  C      128.151     612.036     539.613
  O      127.904     611.812     540.998
  C      129.400     611.266     539.176
  O      130.527     611.646     539.986
  C      129.275     609.746     539.360
  O      128.463     609.164     538.363
  C      130.738     609.342     539.320
  O      131.205     609.221     537.970
  C      131.429     610.508     540.051
  N      131.763     610.181     541.429
  C      133.033     609.668     541.646
  O      133.865     609.475     540.742
  N      133.323     609.283     542.933
  C      132.425     609.236     543.968
  O      132.645     608.670     545.029
  C      131.116     609.863     543.693
  C      130.853     610.281     542.465
  O      127.240     612.872     543.295
  O      128.087     614.292     541.338
  H      128.151     614.928     542.075
  H      130.844     608.375     537.630
  H      134.228     608.856     543.080
  H      130.404     609.921     544.510
  H      129.882     610.726     542.229
  H      132.338     610.811     539.512
  H      130.899     608.364     539.806
  H      128.869     609.520     540.362
  H      129.621     611.511     538.130
  H      128.316     613.107     539.448
  H      127.273     611.714     539.041
  P      127.150     608.345     538.764
  C      127.573     606.407     537.114
  O      126.696     607.463     537.495
  O      126.048     609.150     539.390
  O      127.688     607.233     539.792
  H      127.129     607.235     540.581
  H      127.168     605.896     536.265
  H      127.678     605.720     537.927
  H      128.531     606.812     536.863

 6  7  8  9  10  11  12  13  14  15  16  27  31  32  33  34  35 0
 6-311+G(2d,p)
 ****
 36  37 0
 6-311+G(2d,p)
 ****
 1  2  3  4  5  17  18  19  20  21  22  23  24  25 0
 3-21G
 ****
 26  28  29  30  38  39  40  41  42  43  44  45 0
 3-21G
 ****


