%nproc=1
%NoSave
%Mem=1900MB
#P OB98/GEN NMR

erre ene a

0 1
  C     -203.311    -273.425    -211.079
  O     -202.346    -272.499    -210.618
  H     -203.671    -274.007    -210.228
  H     -202.861    -274.102    -211.810
  H     -204.157    -272.898    -211.529
  P     -201.705    -271.529    -211.724
  C     -199.457    -272.815    -212.032
  O     -200.709    -272.442    -212.590
  C     -198.615    -273.572    -213.067
  O     -198.335    -272.675    -214.185
  C     -197.256    -274.050    -212.534
  O     -196.887    -275.233    -213.262
  C     -196.345    -272.901    -212.933
  O     -194.989    -273.270    -212.829
  C     -196.899    -272.612    -214.326
  N     -193.269    -270.065    -216.868
  C     -193.396    -271.373    -216.555
  N     -194.398    -271.980    -215.887
  C     -195.349    -271.093    -215.546
  C     -195.361    -269.733    -215.805
  C     -194.251    -269.212    -216.497
  N     -194.114    -267.880    -216.808
  N     -196.507    -269.148    -215.293
  C     -197.174    -270.141    -214.741
  N     -196.510    -271.331    -214.863
  O     -200.725    -270.596    -210.872
  O     -202.681    -270.732    -212.524
  H     -194.403    -272.502    -213.015
  H     -201.176    -269.763    -210.640
  H     -192.584    -272.019    -216.885
  H     -198.130    -270.054    -214.237
  H     -196.602    -273.381    -215.050
  H     -196.488    -272.041    -212.271
  H     -197.262    -274.269    -211.462
  H     -199.205    -274.403    -213.470
  H     -199.643    -273.459    -211.163
  H     -198.919    -271.920    -211.708
  H     -193.280    -267.587    -217.294
  H     -194.831    -267.232    -216.523
  P     -197.083    -276.672    -212.570
  C     -194.696    -276.780    -211.500
  O     -196.104    -276.771    -211.302
  O     -196.364    -277.646    -213.623
  O     -198.497    -277.094    -212.342
  H     -196.765    -278.534    -213.574
  H     -194.203    -276.850    -210.553
  H     -194.399    -275.877    -211.991
  H     -194.426    -277.620    -212.106

 6  7  8  9  10  11  12  13  14  15  25  28  32  33  34  35 0
 6-311+G(2d,p)
 ****
 36  37  40 0
 6-311+G(2d,p)
 ****
 1  2  3  4  5  16  17  18  19  20  21  22  23  24 0
 3-21G
 ****
 26  27  29  30  31  38  39 41  42  43  44  45  46  47  48 0
 3-21G
 ****


