%nproc=1
%NoSave
%Mem=1900MB
#P OB98/GEN NMR

erre ene a

0 1
  C        1.166      -7.383     187.478
  O        1.831      -6.849     188.629
  P        3.192      -6.037     188.401
  C        4.369      -7.574     190.138
  O        4.123      -6.251     189.690
  C        5.584      -7.601     191.070
  O        6.780      -7.140     190.406
  C        5.426      -6.720     192.305
  O        4.691      -7.377     193.331
  C        6.876      -6.551     192.732
  O        7.314      -7.721     193.454
  C        7.603      -6.454     191.384
  N       10.400      -2.302     192.121
  C       10.464      -3.539     192.734
  N       11.419      -3.696     193.673
  N        9.666      -4.531     192.446
  C        8.771      -4.238     191.474
  C        8.607      -3.054     190.793
  C        9.488      -1.954     191.130
  O        9.472      -0.834     190.630
  N        7.590      -3.135     189.883
  C        7.146      -4.372     189.992
  N        7.821      -5.078     190.960
  O        2.724      -4.512     188.552
  O        3.840      -6.285     187.079
  H        7.148      -8.487     192.871
  H        3.308      -3.932     188.030
  H       11.038      -1.569     192.380
  H        6.348      -4.803     189.403
  H        8.580      -6.946     191.397
  H        7.016      -5.699     193.399
  H       12.103      -2.990     193.908
  H        4.991      -5.746     192.044
  H       11.504      -4.605     194.109
  H        5.744      -8.639     191.391
  H        4.542      -8.239     189.287
  H        3.474      -7.954     190.635
  P        3.138      -7.006     193.494
  C        3.914      -4.599     194.076
  O        3.093      -5.696     194.414
  O        2.598      -8.172     194.450
  O        2.375      -6.939     192.215
  H        1.664      -8.362     194.243
  H        3.635      -3.748     194.705
  H        3.781      -4.320     193.029
  H        4.966      -4.841     194.266
  H        0.278      -7.895     187.785
  H        1.817      -8.067     186.975
  H        0.906      -6.585     186.814

 3  4  5  6  7  8  9  10  11  12  23  26  30  31 0
 6-311+G(2d,p)
 ****
 33  35  36  37  38 0
 6-311+G(2d,p)
 ****
 1  2  13  14  15  16  17  18  19  20  21  22  24  25 0
 3-21G
 ****
 27  28  29  32  34  39  40  41  42  43  44  45  46  47  48  49 0
 3-21G
 ****


