%nproc=1
%NoSave
%Mem=1900MB
#P OB98/GEN NMR

erre ene a

0 1
  C     -515.248     105.949    -168.800
  O     -516.334     105.168    -168.287
  P     -516.219     103.575    -168.104
  C     -518.210     102.837    -169.552
  O     -517.666     102.887    -168.236
  C     -519.728     103.089    -169.590
  O     -520.462     101.843    -169.418
  C     -520.254     104.063    -168.527
  O     -521.379     104.718    -169.115
  C     -520.702     103.115    -167.425
  O     -521.611     103.709    -166.503
  C     -521.301     101.984    -168.257
  N     -523.690      99.464    -164.490
  C     -523.974     100.626    -165.115
  N     -523.314     101.218    -166.128
  C     -522.282     100.456    -166.531
  C     -521.877      99.241    -166.002
  C     -522.627      98.745    -164.923
  N     -522.315      97.581    -164.255
  N     -520.755      98.768    -166.660
  C     -520.481      99.690    -167.559
  N     -521.378     100.731    -167.527
  O     -515.450     103.151    -166.894
  O     -515.458     103.081    -169.427
  H     -521.957     103.007    -165.922
  H     -514.758     102.450    -169.179
  H     -524.841     101.169    -164.729
  H     -519.642      99.674    -168.246
  H     -522.309     102.236    -168.602
  H     -519.823     102.782    -166.853
  H     -519.506     104.784    -168.193
  H     -519.971     103.458    -170.596
  H     -517.989     101.857    -169.984
  H     -522.855      97.356    -163.431
  H     -521.458      97.105    -164.475
  H     -517.702     103.593    -170.168
  P     -521.283     106.221    -169.671
  C     -522.095     107.501    -167.601
  O     -522.421     107.060    -168.912
  O     -521.297     106.343    -171.157
  O     -519.925     106.794    -169.046
  H     -519.636     107.571    -169.554
  H     -522.169     106.663    -166.905
  H     -522.804     108.280    -167.307
  H     -521.081     107.913    -167.573
  H     -515.536     106.979    -168.839
  H     -514.999     105.611    -169.784
  H     -514.397     105.841    -168.160

 3  4  5  6  7  8  9  10  11  12  22  25  29  30  31  32 0
 6-311+G(2d,p)
 ****
 33  36  37 0
 6-311+G(2d,p)
 ****
 1  2  13  14  15  16  17  18  19  20  21  23  24  26 0
 3-21G
 ****
 27  28  34  35  38  39  40  41  42  43  44  45  46  47  48 0
 3-21G
 ****


