%nproc=1
%NoSave
%Mem=1900MB
#P OB98/GEN NMR

erre ene a

0 1
  C      514.835      97.664    -140.387
  O      513.967      98.755    -140.648
  P      513.526      99.002    -142.174
  C      511.129      99.972    -141.897
  O      512.503     100.230    -142.175
  C      510.314     101.263    -142.025
  O      510.573     102.126    -140.897
  C      510.636     102.092    -143.260
  O      510.066     101.522    -144.431
  C      510.046     103.441    -142.854
  O      508.620     103.429    -143.035
  C      510.390     103.497    -141.351
  N      513.030     107.736    -142.506
  C      511.866     107.238    -142.979
  N      511.240     106.096    -142.640
  C      511.931     105.434    -141.698
  C      513.142     105.798    -141.138
  C      513.703     107.011    -141.573
  N      514.894     107.506    -141.086
  N      513.565     104.855    -140.223
  C      512.617     103.942    -140.220
  N      511.607     104.255    -141.085
  O      512.600      97.739    -142.495
  O      514.664      99.119    -143.140
  H      508.438     102.980    -143.887
  H      512.697      97.462    -143.429
  H      511.367     107.852    -143.733
  H      512.618     103.045    -139.612
  H      509.584     103.940    -140.757
  H      510.446     104.280    -143.431
  H      511.721     102.181    -143.388
  H      509.250     100.985    -142.023
  H      511.025      99.590    -140.880
  H      515.295     108.305    -141.559
  H      515.460     106.903    -140.502
  H      510.762      99.203    -142.587
  P      510.639     102.015    -145.844
  C      510.386      99.619    -146.738
  O      510.000     100.977    -146.900
  O      512.161     101.538    -145.762
  O      510.417     103.457    -146.144
  H      512.248     100.615    -145.469
  H      509.848      99.015    -147.476
  H      510.128      99.264    -145.737
  H      511.460      99.508    -146.914
  H      515.045      97.618    -139.339
  H      515.749      97.798    -140.928
  H      514.367      96.753    -140.698

 3  4  5  6  7  8  9  10  11  12  22  25  29  30  31  32 0
 6-311+G(2d,p)
 ****
 33  36  37 0
 6-311+G(2d,p)
 ****
 1  2  13  14  15  16  17  18  19  20  21  23  24  26 0
 3-21G
 ****
 27  28  34  35  38  39  40  41  42  43  44  45  46  47  48 0
 3-21G
 ****


