%nproc=1
%NoSave
%Mem=1900MB
#P OB98/GEN NMR

erre ene a

0 1
  C      269.418    -609.677     -99.704
  O      269.832    -609.296     -98.405
  H      270.204    -610.296    -100.148
  H      269.278    -608.793    -100.326
  H      268.494    -610.260     -99.659
  P      268.821    -608.460     -97.486
  C      269.163    -607.655     -95.063
  O      269.713    -607.717     -96.371
  C      270.269    -607.560     -94.021
  O      270.931    -608.850     -93.925
  C      271.333    -606.505     -94.340
  O      271.741    -605.890     -93.111
  C      272.483    -607.324     -94.905
  O      273.742    -606.692     -94.719
  C      272.341    -608.639     -94.134
  N      276.363    -610.137     -96.788
  C      276.135    -608.950     -96.121
  N      277.104    -608.010     -96.175
  N      275.037    -608.701     -95.440
  C      274.158    -609.740     -95.453
  C      274.277    -610.958     -96.083
  C      275.482    -611.208     -96.837
  O      275.745    -612.229     -97.458
  N      273.152    -611.725     -95.881
  C      272.363    -610.974     -95.138
  N      272.927    -609.754     -94.858
  O      267.662    -609.233     -96.932
  O      268.334    -607.261     -98.427
  H      274.425    -607.305     -95.063
  H      267.452    -607.452     -98.801
  H      277.231    -610.263     -97.299
  H      271.380    -611.261     -94.778
  H      272.836    -608.608     -93.152
  H      272.327    -607.479     -95.980
  H      277.977    -608.141     -96.665
  H      270.978    -605.743     -95.043
  H      276.962    -607.142     -95.668
  H      269.811    -607.375     -93.042
  H      268.568    -608.560     -94.893
  H      268.502    -606.781     -94.991
  P      271.005    -604.540     -92.650
  C      271.024    -603.704     -90.210
  O      271.795    -603.950     -91.385
  O      269.527    -604.637     -92.488
  O      271.395    -603.504     -93.808
  H      270.665    -602.847     -93.903
  H      271.659    -603.315     -89.442
  H      270.580    -604.619     -89.876
  H      270.254    -602.994     -90.431

 6  7  8  9  10  11  12  13  14  15  26  29  33  34 0
 6-311+G(2d,p)
 ****
 36  38  39  40  41 0
 6-311+G(2d,p)
 ****
 1  2  3  4  5  16  17  18  19  20  21  22  23  24  25 0
 3-21G
 ****
 27  28  30  31  32  35  37  42  43  44  45  46  47 0
 3-21G
 ****
 48  49 0
 3-21G
 ****


