%nproc=1
%NoSave
%Mem=1900MB
#P OB98/GEN NMR

erre ene a

0 1
  C     1120.368     147.219     298.965
  O     1121.634     147.801     299.247
  P     1122.947     147.021     298.752
  C     1124.013     145.928     300.849
  O     1123.968     147.055     299.983
  C     1125.139     146.072     301.865
  O     1126.424     145.944     301.209
  C     1125.177     147.428     302.580
  O     1124.256     147.478     303.658
  C     1126.606     147.436     303.095
  O     1126.708     146.628     304.286
  C     1127.369     146.777     301.935
  N     1131.725     149.074     300.546
  C     1131.440     148.211     301.543
  N     1130.250     147.652     301.868
  C     1129.291     148.098     301.026
  C     1129.416     148.994     299.984
  C     1130.708     149.487     299.739
  N     1131.010     150.346     298.702
  N     1128.215     149.209     299.376
  C     1127.355     148.437     300.018
  N     1127.964     147.735     301.021
  O     1123.590     148.051     297.696
  O     1122.689     145.681     298.137
  H     1126.152     147.059     304.960
  H     1124.162     147.569     297.069
  H     1132.281     147.929     302.178
  H     1126.298     148.349     299.787
  H     1128.171     146.118     302.286
  H     1126.956     148.432     303.357
  H     1125.030     148.247     301.867
  H     1125.049     145.257     302.590
  H     1124.192     145.027     300.250
  H     1131.972     150.507     298.479
  H     1130.293     150.498     297.988
  H     1123.043     145.836     301.352
  P     1123.310     148.777     303.729
  C     1122.699     148.467     306.252
  O     1122.256     148.463     304.903
  O     1122.443     148.654     302.392
  O     1124.047     150.062     303.833
  H     1122.132     149.543     302.120
  H     1121.827     148.555     306.905
  H     1123.361     149.320     306.442
  H     1123.236     147.540     306.476
  H     1119.593     147.847     299.352
  H     1120.309     146.254     299.424
  H     1120.250     147.118     297.906

 3  4  5  6  7  8  9  10  11  12  22  25  29  30  31  32 0
 6-311+G(2d,p)
 ****
 33  36  37 0
 6-311+G(2d,p)
 ****
 1  2  13  14  15  16  17  18  19  20  21  23  24  26 0
 3-21G
 ****
 27  28  34  35  38  39  40  41  42  43  44  45  46  47  48 0
 3-21G
 ****


