%nproc=1
%NoSave
%Mem=1900MB
#P OB98/GEN NMR

erre ene a

0 1
  C      -13.843     -49.817     111.559
  O      -14.280     -49.523     110.247
  H      -13.520     -50.861     111.593
  H      -14.663     -49.684     112.269
  H      -12.999     -49.181     111.838
  P      -14.718     -48.021     109.896
  C      -12.608     -46.573     109.646
  O      -13.550     -47.403     108.982
  C      -12.029     -45.540     108.681
  O      -11.444     -44.459     109.452
  C      -10.941     -46.103     107.759
  O      -11.078     -45.495     106.475
  C       -9.653     -45.636     108.409
  O       -8.585     -45.515     107.471
  C      -10.076     -44.304     109.026
  N       -5.287     -43.742     110.530
  C       -5.800     -44.047     109.285
  N       -4.908     -44.260     108.294
  N       -7.079     -44.140     109.033
  C       -7.859     -43.888     110.113
  C       -7.473     -43.578     111.395
  C       -6.054     -43.492     111.665
  O       -5.539     -43.239     112.748
  N       -8.561     -43.420     112.218
  C       -9.601     -43.638     111.433
  N       -9.228     -43.937     110.150
  O      -15.100     -47.175     111.067
  O      -15.930     -48.200     108.870
  H       -7.832     -45.101     107.945
  H      -16.786     -48.083     109.323
  H       -4.293     -43.693     110.671
  H      -10.637     -43.602     111.744
  H      -10.028     -43.476     108.307
  H       -9.350     -46.350     109.185
  H       -3.908     -44.190     108.411
  H      -10.984     -47.192     107.664
  H       -5.262     -44.462     107.367
  H      -12.852     -45.107     108.100
  H      -11.804     -47.207     110.035
  H      -13.098     -46.068     110.487
  P      -11.751     -46.339     105.289
  C      -14.217     -45.597     105.180
  O      -12.910     -45.444     104.633
  O      -12.144     -47.737     105.634
  O      -10.616     -46.321     104.154
  H      -10.687     -47.141     103.625
  H      -14.897     -44.953     104.663
  H      -14.201     -45.340     106.219
  H      -14.534     -46.613     105.069

 6  7  8  9  10  11  12  13  14  15  26  29  33  34 0
 6-311+G(2d,p)
 ****
 36  38  39  40  41 0
 6-311+G(2d,p)
 ****
 1  2  3  4  5  16  17  18  19  20  21  22  23  24  25 0
 3-21G
 ****
 27  28  30  31  32  35  37  42  43  44  45  46  47 0
 3-21G
 ****
 48  49 0
 3-21G
 ****


