%nproc=1
%NoSave
%Mem=1900MB
#P OB98/GEN NMR

erre ene a

0 1
  C      -90.005      62.694     226.854
  O      -90.715      63.016     228.037
  P      -92.287      63.302     227.970
  C      -91.910      65.831     228.263
  O      -92.485      64.809     227.453
  C      -92.206      67.207     227.674
  O      -91.539      67.367     226.405
  C      -93.686      67.455     227.392
  O      -94.387      67.739     228.586
  C      -93.608      68.620     226.406
  O      -93.436      69.866     227.108
  C      -92.343      68.270     225.604
  N      -94.800      68.910     221.176
  C      -94.815      69.619     222.330
  N      -94.158      69.361     223.485
  C      -93.448      68.225     223.376
  C      -93.358      67.377     222.279
  C      -94.063      67.769     221.122
  N      -94.002      67.091     219.921
  N      -92.549      66.295     222.564
  C      -92.168      66.482     223.818
  N      -92.634      67.662     224.322
  O      -93.055      62.950     229.203
  O      -92.784      62.427     226.724
  H      -92.625      69.788     227.643
  H      -93.442      61.773     227.027
  H      -95.432      70.512     222.320
  H      -91.546      65.801     224.387
  H      -91.722      69.158     225.418
  H      -94.511      68.710     225.791
  H      -94.120      66.586     226.883
  H      -91.814      67.969     228.361
  H      -90.825      65.675     228.307
  H      -94.423      67.539     219.129
  H      -93.238      66.439     219.784
  H      -92.316      65.763     229.283
  P      -95.923      67.291     228.737
  C      -96.648      69.388     227.446
  O      -96.729      67.976     227.530
  O      -96.525      67.480     230.091
  O      -95.904      65.742     228.315
  H      -96.590      65.262     228.816
  H      -97.316      69.838     228.189
  H      -96.964      69.700     226.446
  H      -95.623      69.735     227.615
  H      -88.973      62.537     227.089
  H      -90.093      63.499     226.155
  H      -90.413      61.803     226.425

 3  4  5  6  7  8  9  10  11  12  22  25  29  30  31  32 0
 6-311+G(2d,p)
 ****
 33  36  37 0
 6-311+G(2d,p)
 ****
 1  2  13  14  15  16  17  18  19  20  21  23  24  26 0
 3-21G
 ****
 27  28  34  35  38  39  40  41  42  43  44  45  46  47  48 0
 3-21G
 ****


