%nproc=1
%NoSave
%Mem=1900MB
#P OB98/GEN NMR

erre ene a

0 1
  C       -2.010    -182.099     -67.902
  O       -2.225    -181.701     -66.551
  P       -1.257    -180.755     -65.709
  C        0.622    -182.542     -65.272
  O       -0.365    -181.665     -64.744
  C        1.303    -183.344     -64.153
  O        1.717    -182.420     -63.101
  C        0.362    -184.369     -63.509
  O        0.981    -185.624     -63.248
  C       -0.199    -183.612     -62.317
  O       -0.745    -184.457     -61.317
  C        0.993    -182.756     -61.895
  N       -0.546    -180.720     -57.475
  C       -0.408    -182.047     -57.826
  N       -0.736    -182.959     -56.887
  N       -0.001    -182.448     -59.000
  C        0.219    -181.439     -59.871
  C        0.103    -180.087     -59.647
  C       -0.300    -179.652     -58.327
  O       -0.418    -178.487     -57.957
  N        0.421    -179.365     -60.769
  C        0.708    -180.279     -61.675
  N        0.608    -181.556     -61.174
  O       -1.891    -179.550     -65.099
  O       -0.186    -180.238     -66.799
  H       -0.853    -183.927     -60.504
  H        0.074    -179.337     -66.521
  H       -0.841    -180.467     -56.548
  H        1.006    -180.074     -62.696
  H        1.675    -183.295     -61.235
  H       -1.016    -182.978     -62.683
  H       -1.172    -182.723     -56.009
  H       -0.457    -184.625     -64.189
  H       -0.846    -183.918     -57.219
  H        2.201    -183.822     -64.557
  H        1.357    -181.902     -65.771
  H        0.190    -183.202     -66.025
  P        0.779    -187.014     -64.009
  C       -0.859    -188.438     -62.645
  O        0.499    -188.154     -62.922
  O        2.230    -187.397     -64.563
  O       -0.208    -186.973     -65.129
  H        2.207    -187.442     -65.540
  H       -0.915    -189.021     -61.723
  H       -1.284    -189.027     -63.463
  H       -1.430    -187.515     -62.518
  H       -2.812    -182.732     -68.219
  H       -1.085    -182.632     -67.974
  H       -1.972    -181.232     -68.528

 3  4  5  6  7  8  9  10  11  12  23  26  30  31 0
 6-311+G(2d,p)
 ****
 33  35  36  37  38 0
 6-311+G(2d,p)
 ****
 1  2  13  14  15  16  17  18  19  20  21  22  24  25 0
 3-21G
 ****
 27  28  29  32  34  39  40  41  42  43  44  45  46  47  48  49 0
 3-21G
 ****


