%nproc=1
%NoSave
%Mem=1900MB
#P OB98/GEN NMR

erre ene a

0 1
  C      450.114    -243.631    -370.094
  O      449.251    -243.442    -371.204
  P      448.567    -242.019    -371.489
  C      447.821    -243.108    -373.713
  O      447.444    -242.310    -372.596
  C      446.844    -244.266    -373.873
  O      445.488    -243.778    -373.784
  C      446.934    -244.989    -375.213
  O      448.063    -245.847    -375.254
  C      445.578    -245.683    -375.260
  O      445.599    -246.874    -374.458
  C      444.658    -244.629    -374.607
  N      443.910    -243.850    -375.587
  C      443.004    -244.555    -376.383
  O      442.846    -245.764    -376.245
  N      442.257    -243.856    -377.300
  C      442.417    -242.575    -377.433
  N      441.603    -241.928    -378.312
  C      443.404    -241.805    -376.654
  C      444.103    -242.494    -375.757
  O      449.515    -240.925    -371.843
  O      447.699    -241.724    -370.185
  H      444.670    -247.154    -374.343
  H      448.199    -241.253    -369.473
  H      443.513    -240.739    -376.806
  H      444.830    -242.000    -375.129
  H      443.950    -245.113    -373.928
  H      445.267    -245.969    -376.271
  H      447.003    -244.265    -376.033
  H      447.007    -244.974    -373.046
  H      440.831    -242.464    -378.689
  H      448.825    -243.506    -373.536
  H      441.465    -240.927    -378.261
  H      447.840    -242.482    -374.610
  P      448.741    -246.112    -376.682
  C      451.011    -246.239    -375.436
  O      450.141    -246.840    -376.376
  O      449.155    -244.643    -377.170
  O      447.859    -246.803    -377.666
  H      448.511    -244.308    -377.821
  H      451.786    -246.961    -375.167
  H      450.467    -245.953    -374.529
  H      451.488    -245.361    -375.875
  H      450.463    -244.642    -370.082
  H      449.581    -243.427    -369.189
  H      450.949    -242.966    -370.174

 3  4  5  6  7  8  9  10  11  12  13  23  27  28  29  30  32 0
 6-311+G(2d,p)
 ****
 34  35 0
 6-311+G(2d,p)
 ****
 1  2  14  15  16  17  18  19  20  21  22  24  25  26 0
 3-21G
 ****
 31  33  36  37  38  39  40  41  42  43  44  45  46 0
 3-21G
 ****


