%nproc=1
%NoSave
%Mem=1900MB
#P OB98/GEN NMR

erre ene a

0 1
  C     -468.690     300.111     320.164
  O     -467.613     299.548     320.892
  H     -468.296     300.570     319.254
  H     -469.180     300.883     320.763
  H     -469.412     299.338     319.887
  P     -467.999     298.668     322.179
  C     -468.566     296.282     321.240
  O     -467.606     297.159     321.802
  C     -468.690     295.007     322.073
  O     -469.889     294.296     321.668
  C     -467.505     294.051     321.915
  O     -467.264     293.416     323.172
  C     -468.014     293.021     320.919
  O     -467.308     291.788     321.016
  C     -469.506     292.956     321.293
  N     -470.331     292.442     320.204
  C     -470.695     291.091     320.278
  O     -470.311     290.396     321.216
  N     -471.448     290.554     319.265
  C     -471.758     291.281     318.235
  N     -472.485     290.681     317.255
  C     -471.359     292.695     318.098
  C     -470.663     293.209     319.111
  O     -469.597     298.676     322.116
  O     -467.430     299.172     323.463
  H     -466.345     291.980     321.030
  H     -469.950     298.520     321.223
  H     -471.628     293.256     317.214
  H     -470.336     294.239     319.097
  H     -469.649     292.313     322.171
  H     -467.896     293.396     319.896
  H     -466.597     294.557     321.575
  H     -468.828     295.291     323.124
  H     -472.718     289.702     317.381
  H     -468.287     296.019     320.213
  H     -472.732     291.132     316.386
  H     -469.526     296.808     321.206
  P     -465.775     292.989     323.570
  C     -465.672     294.263     325.817
  O     -465.625     293.000     325.165
  O     -464.680     293.674     322.826
  O     -465.760     291.413     323.242
  H     -464.900     291.202     322.826
  H     -465.560     294.124     326.872
  H     -466.612     294.733     325.617
  H     -464.879     294.882     325.453

 6  7  8  9  10  11  12  13  14  15  16  26  30  31  32  33  35 0
 6-311+G(2d,p)
 ****
 37  38 0
 6-311+G(2d,p)
 ****
 1  2  3  4  5  17  18  19  20  21  22  23  24  25 0
 3-21G
 ****
 27  28  29  34  36  39  40  41  42  43  44  45  46 0
 3-21G
 ****


