%nproc=1
%NoSave
%Mem=1900MB
#P OB98/GEN NMR

erre ene a

0 1
  C     -119.451     -48.865    -106.830
  O     -120.264     -48.828    -107.989
  P     -121.598     -47.944    -107.959
  C     -120.252     -45.903    -108.847
  O     -121.160     -46.403    -107.876
  C     -120.775     -44.596    -109.446
  O     -121.003     -43.631    -108.374
  C     -119.818     -43.943    -110.454
  O     -120.619     -43.294    -111.454
  C     -119.115     -42.897    -109.608
  O     -118.511     -41.868    -110.377
  C     -120.283     -42.433    -108.729
  N     -119.844     -41.697    -107.546
  C     -120.110     -40.331    -107.506
  O     -120.685     -39.716    -108.404
  N     -119.633     -39.661    -106.412
  C     -118.857     -40.189    -105.420
  O     -118.361     -39.510    -104.530
  C     -118.607     -41.635    -105.514
  C     -119.105     -42.313    -106.552
  O     -122.205     -48.245    -106.508
  O     -122.574     -48.250    -109.048
  H     -119.208     -41.460    -110.920
  H     -122.925     -48.899    -106.569
  H     -119.825     -38.671    -106.362
  H     -118.013     -42.093    -104.733
  H     -118.920     -43.378    -106.656
  H     -120.970     -41.806    -109.313
  H     -118.332     -43.378    -109.012
  H     -119.123     -44.648    -110.921
  H     -121.747     -44.794    -109.918
  H     -120.135     -46.642    -109.642
  H     -119.269     -45.749    -108.385
  P     -120.070     -43.281    -112.964
  C     -121.417     -45.274    -113.987
  O     -120.184     -44.783    -113.508
  O     -118.499     -43.080    -112.710
  O     -120.678     -42.215    -113.816
  H     -118.166     -43.629    -111.981
  H     -121.997     -44.492    -114.487
  H     -121.996     -45.676    -113.153
  H     -121.223     -46.079    -114.703
  H     -118.604     -49.494    -107.008
  H     -120.017     -49.253    -106.009
  H     -119.117     -47.875    -106.597

 3  4  5  6  7  8  9  10  11  12  13  23  28  29  30  31  32 0
 6-311+G(2d,p)
 ****
 33  34 0
 6-311+G(2d,p)
 ****
 1  2  14  15  16  17  18  19  20  21  22  24  25  26 0
 3-21G
 ****
 27  35  36  37  38  39  40  41  42  43  44  45 0
 3-21G
 ****


