%nproc=1
%NoSave
%Mem=1900MB
#P OB98/GEN NMR

erre ene a

0 1
  C     -739.607     509.223    -182.319
  O     -739.273     508.375    -181.241
  H     -738.716     509.382    -182.934
  H     -739.961     510.195    -181.954
  H     -740.384     508.750    -182.930
  P     -740.438     508.046    -180.190
  C     -740.369     505.500    -180.516
  O     -741.104     506.689    -180.745
  C     -739.773     504.983    -181.835
  O     -738.729     505.913    -182.259
  C     -739.133     503.597    -181.721
  O     -739.391     502.848    -182.910
  C     -737.641     503.900    -181.617
  O     -736.843     502.800    -182.064
  C     -737.520     505.171    -182.472
  N     -732.423     505.205    -182.318
  C     -733.300     504.361    -182.875
  N     -734.653     504.420    -182.884
  C     -735.071     505.558    -182.260
  C     -734.294     506.506    -181.639
  C     -732.910     506.301    -181.677
  N     -731.998     507.162    -181.079
  N     -735.099     507.490    -181.087
  C     -736.331     507.124    -181.365
  N     -736.367     505.956    -182.068
  O     -741.390     509.161    -179.915
  O     -739.602     507.531    -178.926
  H     -735.911     503.065    -182.028
  H     -738.889     506.920    -179.195
  H     -732.867     503.488    -183.387
  H     -737.230     507.675    -181.077
  H     -737.409     504.941    -183.538
  H     -737.382     504.106    -180.566
  H     -739.495     503.035    -180.851
  H     -740.554     504.998    -182.616
  H     -741.027     504.724    -180.097
  H     -731.014     506.954    -181.167
  H     -732.338     507.987    -180.621
  H     -739.584     505.702    -179.796
  P     -740.297     501.535    -182.802
  C     -741.613     501.409    -185.028
  O     -741.651     501.763    -183.642
  O     -740.465     500.970    -181.429
  O     -739.489     500.496    -183.728
  H     -739.550     499.594    -183.322
  H     -742.566     501.606    -185.473
  H     -741.382     500.369    -185.124
  H     -740.862     501.988    -185.524

 6  7  8  9  10  11  12  13  14  15  25  28  32  33  34  35 0
 6-311+G(2d,p)
 ****
 36  39  40 0
 6-311+G(2d,p)
 ****
 1  2  3  4  5  16  17  18  19  20  21  22  23  24 0
 3-21G
 ****
 26  27  29  30  31  37  38  41  42  43  44  45  46  47 0
 3-21G
 ****
 48 0
 3-21G
 ****


