%nproc=1
%NoSave
%Mem=1900MB
#P OB98/GEN NMR

erre ene a

0 1
  C      136.862    -115.782    -694.690
  O      138.225    -115.492    -694.974
  P      138.848    -114.079    -694.533
  C      139.125    -113.380    -696.988
  O      138.581    -113.034    -695.717
  C      138.970    -112.222    -697.963
  O      137.586    -111.869    -698.121
  C      139.670    -110.942    -697.521
  O      141.069    -111.023    -697.726
  C      138.959    -109.899    -698.381
  O      139.527    -109.863    -699.701
  C      137.528    -110.459    -698.427
  N      135.215    -106.044    -697.337
  C      136.168    -106.365    -698.236
  N      136.761    -107.556    -698.441
  C      136.289    -108.477    -697.574
  C      135.343    -108.285    -696.577
  C      134.773    -107.009    -696.491
  N      133.754    -106.688    -695.618
  N      135.147    -109.457    -695.878
  C      135.972    -110.325    -696.431
  N      136.624    -109.799    -697.504
  O      140.248    -114.131    -694.033
  O      137.854    -113.575    -693.375
  H      138.962    -109.258    -700.233
  H      138.353    -113.469    -692.541
  H      136.489    -105.551    -698.890
  H      136.112    -111.354    -696.107
  H      137.089    -110.370    -699.434
  H      139.026    -108.896    -697.973
  H      139.451    -110.739    -696.464
  H      139.349    -112.545    -698.940
  H      138.590    -114.259    -697.364
  H      133.318    -105.788    -695.728
  H      133.213    -107.445    -695.209
  H      140.187    -113.644    -696.868
  P      142.061    -110.115    -696.869
  C      143.203    -109.105    -698.934
  O      142.445    -108.850    -697.775
  O      143.216    -110.826    -696.239
  O      141.103    -109.481    -695.746
  H      141.598    -109.335    -694.913
  H      144.243    -109.274    -698.658
  H      143.134    -108.254    -699.603
  H      142.814    -109.997    -699.454
  H      136.622    -116.760    -695.053
  H      136.236    -115.060    -695.171
  H      136.702    -115.745    -693.633

 3  4  5  6  7  8  9  10  11  12  22  25  29  30  31  32 0
 6-311+G(2d,p)
 ****
 33  36  37 0
 6-311+G(2d,p)
 ****
 1  2  13  14  15  16  17  18  19  20  21  23  24  26 0
 3-21G
 ****
 27  28  34  35  38  39  40  41  42  43  44  45  46  47  48 0
 3-21G
 ****


