%nproc=1
%NoSave
%Mem=1900MB
#P OB98/GEN NMR

erre ene a

0 1
  C      144.307    -778.846     919.254
  O      145.341    -779.555     919.950
  P      145.132    -779.856     921.521
  C      143.419    -781.801     921.246
  O      143.672    -780.485     921.729
  C      143.028    -782.730     922.403
  O      141.772    -782.337     922.999
  C      142.838    -784.174     921.978
  O      144.088    -784.862     921.903
  C      142.021    -784.707     923.135
  O      142.870    -785.002     924.261
  C      141.095    -783.533     923.460
  N      136.224    -781.942     923.632
  C      137.281    -781.718     924.449
  N      138.542    -782.193     924.347
  C      138.672    -782.960     923.261
  C      137.686    -783.291     922.328
  C      136.407    -782.741     922.549
  N      135.334    -782.973     921.713
  N      138.195    -784.113     921.359
  C      139.451    -784.278     921.674
  N      139.791    -783.615     922.819
  O      144.995    -778.387     922.145
  O      146.258    -780.617     922.130
  H      143.447    -785.750     923.997
  H      145.389    -778.374     923.036
  H      137.088    -781.063     925.306
  H      140.167    -784.865     921.095
  H      140.923    -783.421     924.536
  H      141.495    -785.648     922.887
  H      142.274    -784.243     921.038
  H      143.809    -782.665     923.167
  H      144.312    -782.184     920.743
  H      134.466    -782.521     921.919
  H      135.480    -783.550     920.891
  H      142.630    -781.747     920.492
  P      144.114    -786.244     921.085
  C      144.902    -785.573     918.693
  O      143.809    -785.847     919.555
  O      142.767    -786.976     921.565
  O      145.329    -787.086     921.323
  H      142.890    -787.944     921.536
  H      144.548    -785.622     917.661
  H      145.702    -786.297     918.831
  H      145.279    -784.565     918.890
  H      144.587    -778.723     918.229
  H      144.169    -777.885     919.704
  H      143.394    -779.401     919.310

 3  4  5  6  7  8  9  10  11  12  22  25  29  30  31  32 0
 6-311+G(2d,p)
 ****
 33  36  37 0
 6-311+G(2d,p)
 ****
 1  2  13  14  15  16  17  18  19  20  21  23  24  26 0
 3-21G
 ****
 27  28  34  35  38  39  40  41  42  43  44  45  46  47  48 0
 3-21G
 ****


