%nproc=1
%NoSave
%Mem=1900MB
#P OB98/GEN NMR

erre ene a

0 1
  C     -148.316    -300.772      29.239
  O     -148.737    -299.686      30.043
  H     -147.385    -300.497      28.737
  H     -149.076    -300.985      28.484
  H     -148.139    -301.661      29.854
  P     -149.889    -299.983      31.119
  C     -151.709    -300.168      29.275
  O     -151.272    -299.503      30.453
  C     -152.687    -299.285      28.501
  O     -153.026    -299.899      27.235
  C     -154.006    -299.031      29.223
  O     -153.895    -297.959      30.152
  C     -154.897    -298.638      28.051
  O     -154.610    -297.279      27.653
  C     -154.427    -299.609      26.959
  N     -158.998    -301.747      26.408
  C     -158.642    -300.408      26.478
  N     -159.656    -299.517      26.388
  N     -157.413    -299.983      26.616
  C     -156.509    -300.996      26.708
  C     -156.738    -302.352      26.666
  C     -158.100    -302.805      26.493
  O     -158.460    -303.979      26.412
  N     -155.576    -303.059      26.793
  C     -154.644    -302.134      26.936
  N     -155.162    -300.862      26.902
  O     -149.611    -298.879      32.248
  O     -149.887    -301.358      31.692
  H     -153.642    -297.208      27.549
  H     -149.165    -299.307      33.003
  H     -159.961    -302.019      26.309
  H     -153.590    -302.333      27.067
  H     -154.475    -299.165      25.960
  H     -155.959    -298.682      28.296
  H     -160.627    -299.776      26.304
  H     -154.402    -299.939      29.696
  H     -159.419    -298.530      26.436
  H     -152.178    -298.340      28.275
  H     -152.206    -301.100      29.559
  H     -150.840    -300.396      28.653
  P     -153.861    -298.319      31.719
  C     -156.450    -298.239      31.702
  O     -155.258    -297.827      32.344
  O     -152.797    -297.269      32.300
  O     -153.469    -299.720      32.045
  H     -151.991    -297.737      32.585
  H     -157.293    -297.839      32.225
  H     -156.504    -299.308      31.702
  H     -156.454    -297.882      30.693

 6  7  8  9  10  11  12  13  14  15  26  29  33  34 0
 6-311+G(2d,p)
 ****
 36  38  39  40  41 0
 6-311+G(2d,p)
 ****
 1  2  3  4  5  16  17  18  19  20  21  22  23  24  25 0
 3-21G
 ****
 27  28  30  31  32  35  37  42  43  44  45  46  47 0
 3-21G
 ****
 48  49 0
 3-21G
 ****


