%nproc=1
%NoSave
%Mem=1900MB
#P OB98/GEN NMR

erre ene a

0 1
  C      442.376     129.478     236.818
  O      440.951     129.486     236.979
  P      440.167     130.539     237.899
  C      439.404     132.284     236.142
  O      440.290     131.991     237.219
  C      438.378     133.342     236.558
  O      439.018     134.634     236.693
  C      437.252     133.582     235.553
  O      436.312     132.529     235.532
  C      436.699     134.918     236.051
  O      435.752     134.726     237.113
  C      437.961     135.625     236.585
  N      438.381     136.748     235.759
  C      437.784     137.984     236.032
  O      436.893     138.074     236.880
  N      438.207     139.080     235.325
  C      439.066     138.942     234.365
  N      439.458     140.073     233.713
  C      439.611     137.630     233.955
  C      439.232     136.590     234.686
  O      440.583     130.515     239.336
  O      438.614     130.178     237.744
  H      438.128     130.457     238.543
  H      435.372     135.605     237.316
  H      440.293     137.558     233.120
  H      439.602     135.596     234.465
  H      437.791     135.973     237.613
  H      436.182     135.471     235.257
  H      437.686     133.721     234.552
  H      437.963     133.050     237.531
  H      439.078     140.953     234.023
  H      438.879     131.365     235.863
  H      440.134     140.075     232.963
  H      439.990     132.623     235.276
  P      436.018     131.840     234.115
  C      437.377     129.630     234.298
  O      437.285     130.927     233.746
  O      436.110     133.060     233.077
  O      434.698     131.143     234.021
  H      435.422     132.956     232.392
  H      437.959     129.005     233.621
  H      436.391     129.181     234.440
  H      437.888     129.684     235.262
  H      442.656     128.684     236.158
  H      442.842     129.331     237.770
  H      442.694     130.413     236.406

 3  4  5  6  7  8  9  10  11  12  13  24  27  28  29  30  32 0
 6-311+G(2d,p)
 ****
 34  35 0
 6-311+G(2d,p)
 ****
 1  2  14  15  16  17  18  19  20  21  22  23  25  26 0
 3-21G
 ****
 31  33  36  37  38  39  40  41  42  43  44  45  46 0
 3-21G
 ****


