%nproc=1
%NoSave
%Mem=1900MB
#P OB98/GEN NMR

erre ene a

0 1
  C      408.333     200.334      73.944
  O      409.724     200.059      73.747
  P      410.563     201.100      72.857
  C      410.518     202.969      74.675
  O      411.308     202.122      73.838
  C      411.419     203.719      75.665
  O      411.971     202.827      76.645
  C      412.623     204.373      74.998
  O      412.236     205.566      74.347
  C      413.552     204.588      76.184
  O      413.338     205.865      76.811
  C      413.176     203.437      77.145
  N      414.238     202.455      77.295
  C      414.876     202.427      78.542
  O      414.544     203.222      79.426
  N      415.891     201.525      78.740
  C      416.255     200.735      77.768
  N      417.268     199.864      78.026
  C      415.625     200.752      76.432
  C      414.637     201.631      76.267
  O      409.431     201.997      72.177
  O      411.446     200.447      71.838
  H      413.509     206.530      76.114
  H      409.713     202.283      71.291
  H      415.964     200.082      75.657
  H      414.116     201.709      75.319
  H      412.935     203.832      78.140
  H      414.603     204.559      75.872
  H      413.078     203.676      74.288
  H      410.809     204.478      76.180
  H      417.675     199.882      78.961
  H      409.784     202.370      75.216
  H      417.628     199.218      77.349
  H      409.957     203.664      74.045
  P      412.596     205.716      72.797
  C      410.272     205.120      71.883
  O      411.218     206.155      72.089
  O      412.734     204.196      72.332
  O      413.805     206.529      72.446
  H      413.048     204.144      71.415
  H      409.314     205.577      71.597
  H      410.117     204.545      72.799
  H      410.602     204.462      71.074
  H      407.900     199.566      74.551
  H      407.837     200.362      72.996
  H      408.222     201.280      74.432

 3  4  5  6  7  8  9  10  11  12  13  21  23  27  28  29  30  32 0
 6-311+G(2d,p)
 ****
 34  35 0
 6-311+G(2d,p)
 ****
 1  2  14  15  16  17  18  19  20  22  24  25  26 0
 3-21G
 ****
 31  33  36  37  38  39  40  41  42  43  44  45  46 0
 3-21G
 ****


