%nproc=1
%NoSave
%Mem=1900MB
#P OB98/GEN NMR

erre ene a

0 1
  C     -621.894     160.359    -893.100
  O     -620.807     159.978    -893.940
  P     -619.589     160.994    -894.120
  C     -617.208     160.018    -893.840
  O     -618.369     160.527    -893.180
  C     -616.944     158.568    -893.420
  O     -618.059     157.739    -893.810
  C     -615.701     157.926    -894.050
  O     -614.460     158.061    -893.390
  C     -616.070     156.446    -893.980
  O     -615.740     155.926    -892.660
  C     -617.571     156.431    -894.160
  N     -617.988     152.677    -897.640
  C     -617.549     152.670    -896.360
  N     -617.484     153.722    -895.490
  C     -617.924     154.831    -896.080
  C     -618.385     154.995    -897.370
  C     -618.405     153.834    -898.170
  N     -618.835     153.829    -899.480
  N     -618.746     156.315    -897.630
  C     -618.484     156.946    -896.490
  N     -617.990     156.099    -895.530
  O     -619.932     162.450    -894.070
  O     -619.052     160.605    -895.590
  H     -615.858     154.962    -892.710
  H     -618.758     161.438    -896.050
  H     -617.239     151.713    -895.960
  H     -618.626     158.005    -896.350
  H     -618.074     155.699    -893.510
  H     -615.499     155.846    -894.690
  H     -615.613     158.236    -895.090
  H     -616.872     158.525    -892.310
  H     -616.354     160.639    -893.580
  H     -618.792     152.961    -900.000
  H     -619.102     154.711    -899.930
  H     -617.378     160.122    -894.930
  P     -613.678     159.481    -893.350
  C     -612.857     159.582    -890.870
  O     -613.793     159.997    -891.850
  O     -614.134     160.466    -894.380
  O     -612.159     159.041    -893.480
  H     -611.801     158.580    -892.700
  H     -612.972     160.217    -889.980
  H     -611.837     159.683    -891.240
  H     -613.032     158.528    -890.610
  H     -622.624     159.576    -893.084
  H     -622.340     161.255    -893.478
  H     -621.534     160.532    -892.107

 3  4  5  6  7  8  9  10  11  12  22  25  29  30  31  32 0
 6-311+G(2d,p)
 ****
 33  36  37 0
 6-311+G(2d,p)
 ****
 1  2  13  14  15  16  17  18  19  20  21  23  24  26 0
 3-21G
 ****
 27  28  34  35  38  39  40  41  42  43  44  45  46  47  48 0
 3-21G
 ****


