%nproc=1
%NoSave
%Mem=1900MB
#P OB98/GEN NMR

erre ene a

0 1
  C     -139.596     443.473     297.844
  O     -140.967     443.440     297.493
  H     -139.335     444.492     298.139
  H     -138.985     443.188     296.984
  H     -139.399     442.800     298.683
  P     -141.599     441.992     297.198
  C     -142.002     441.439     299.734
  O     -142.550     441.674     298.451
  C     -143.048     440.825     300.664
  O     -142.373     440.268     301.821
  C     -144.086     441.829     301.171
  O     -145.346     441.162     301.281
  C     -143.581     442.187     302.559
  O     -144.622     442.679     303.399
  C     -142.959     440.852     303.002
  N     -141.971     441.023     304.065
  C     -142.151     440.254     305.218
  O     -143.112     439.491     305.311
  N     -141.267     440.397     306.257
  C     -140.320     441.282     306.180
  N     -139.492     441.393     307.251
  C     -140.118     442.146     305.000
  C     -140.964     441.959     303.987
  O     -140.339     441.032     297.422
  O     -142.244     441.863     295.859
  H     -145.044     443.445     302.955
  H     -139.824     441.250     298.217
  H     -139.323     442.877     304.986
  H     -140.885     442.544     303.081
  H     -143.737     440.166     303.363
  H     -142.809     442.960     302.492
  H     -144.184     442.702     300.518
  H     -143.531     439.990     300.144
  H     -139.681     440.798     308.049
  H     -141.634     442.374     300.168
  H     -138.757     442.084     307.323
  H     -141.151     440.760     299.619
  P     -146.691     441.953     300.941
  C     -146.675     442.230     298.371
  O     -147.206     441.524     299.485
  O     -146.663     443.422     301.198
  O     -147.770     441.245     301.903
  H     -148.347     441.944     302.271
  H     -147.101     441.845     297.468
  H     -145.612     442.107     298.345
  H     -146.912     443.270     298.462

 6  7  8  9  10  11  12  13  14  15  16  26  30  31  32  33  35 0
 6-311+G(2d,p)
 ****
 37  38 0
 6-311+G(2d,p)
 ****
 1  2  3  4  5  17  18  19  20  21  22  23  24  25 0
 3-21G
 ****
 27  28  29  34  36  39  40  41  42  43  44  45  46 0
 3-21G
 ****


