%nproc=1
%NoSave
%Mem=1900MB
#P OB98/GEN NMR

erre ene a

0 1
  C      121.310     160.340      32.047
  O      120.494     159.555      31.200
  H      120.668     160.894      32.737
  H      121.886     161.053      31.451
  H      121.986     159.702      32.625
  P      121.247     158.522      30.226
  C      119.996     158.929      27.953
  O      120.172     158.124      29.104
  C      118.644     159.644      27.996
  O      118.662     160.607      29.082
  C      118.306     160.399      26.709
  O      116.897     160.310      26.489
  C      118.673     161.836      27.038
  O      117.980     162.771      26.216
  C      118.325     161.898      28.535
  N      119.028     162.976      29.227
  C      118.435     164.243      29.185
  O      117.380     164.413      28.574
  N      119.070     165.292      29.796
  C      120.230     165.113      30.344
  N      120.820     166.200      30.912
  C      120.914     163.806      30.375
  C      120.261     162.790      29.812
  O      121.341     157.215      31.145
  O      122.558     159.008      29.709
  H      117.039     162.493      26.151
  H      120.516     157.015      31.619
  H      121.887     163.706      30.835
  H      120.684     161.794      29.796
  H      117.245     162.048      28.672
  H      119.748     161.993      26.893
  H      118.841     160.013      25.839
  H      117.868     158.909      28.236
  H      120.325     167.082      30.849
  H      120.053     158.318      27.048
  H      121.744     166.189      31.318
  H      120.812     159.660      27.922
  P      116.334     159.318      25.365
  C      114.593     160.750      24.097
  O      114.813     159.701      25.032
  O      116.589     157.867      25.596
  O      117.106     159.813      24.043
  H      117.368     159.019      23.537
  H      113.541     160.900      23.970
  H      115.032     160.488      23.157
  H      115.040     161.652      24.461

 6  7  8  9  10  11  12  13  14  15  16  26  30  31  32  33  35 0
 6-311+G(2d,p)
 ****
 37  38 0
 6-311+G(2d,p)
 ****
 1  2  3  4  5  17  18  19  20  21  22  23  24  25 0
 3-21G
 ****
 27  28  29  34  36  39  40  41  42  43  44  45  46 0
 3-21G
 ****


