%nproc=1
%NoSave
%Mem=1900MB
#P OB98/GEN NMR

erre ene a

0 1
  C      -64.910      96.802    -145.047
  O      -66.007      97.356    -145.752
  H      -64.734      95.789    -145.422
  H      -65.134      96.748    -143.978
  H      -64.015      97.402    -145.218
  P      -66.459      98.835    -145.326
  C      -66.504      99.765    -147.741
  O      -65.858      99.782    -146.474
  C      -65.477      99.923    -148.864
  O      -64.569      98.808    -148.865
  C      -66.083      99.983    -150.262
  O      -66.517     101.304    -150.558
  C      -64.882      99.588    -151.114
  O      -64.023     100.734    -151.306
  C      -64.171      98.542    -150.239
  N      -62.444      94.230    -152.427
  C      -61.968      95.493    -152.433
  N      -62.509      96.599    -151.884
  C      -63.658      96.309    -151.253
  C      -64.266      95.063    -151.160
  C      -63.611      93.989    -151.779
  N      -64.101      92.697    -151.774
  N      -65.443      95.147    -150.441
  C      -65.507      96.404    -150.051
  N      -64.470      97.156    -150.549
  O      -66.145      99.228    -143.917
  O      -68.018      98.797    -145.691
  H      -63.966     101.188    -150.442
  H      -68.160      98.327    -146.534
  H      -61.022      95.637    -152.965
  H      -66.265      96.816    -149.397
  H      -63.077      98.646    -150.290
  H      -65.170      99.240    -152.105
  H      -66.882      99.246    -150.398
  H      -64.882     100.824    -148.656
  H      -67.243     100.578    -147.799
  H      -63.669      92.037    -152.399
  H      -65.028      92.551    -151.404
  H      -67.029      98.812    -147.833
  P      -67.847     101.565    -151.416
  C      -68.713     103.278    -149.701
  O      -68.951     102.029    -150.352
  O      -68.239     100.435    -152.311
  O      -67.537     102.915    -152.220
  H      -68.166     103.015    -152.963
  H      -69.511     103.482    -149.018
  H      -68.662     104.057    -150.432
  H      -67.788     103.230    -149.165

 6  7  8  9  10  11  12  13  14  15  25  28  32  33  34  35 0
 6-311+G(2d,p)
 ****
 36  39  40 0
 6-311+G(2d,p)
 ****
 1  2  3  4  5  16  17  18  19  20  21  22  23  24 0
 3-21G
 ****
 26  27  29  30  31  37  38  41  42  43  44  45  46  47 0
 3-21G
 ****
 48 0
 3-21G
 ****


