%nproc=1
%NoSave
%Mem=1900MB
#P OB98/GEN NMR

erre ene a

0 1
  C     -266.149     -10.164     330.808
  O     -265.937      -9.066     329.942
  P     -267.175      -8.200     329.402
  C     -267.028      -9.334     327.084
  O     -267.837      -9.089     328.237
  C     -267.836     -10.016     325.985
  O     -268.313     -11.308     326.435
  C     -269.074      -9.250     325.551
  O     -268.720      -8.172     324.707
  C     -269.884     -10.350     324.873
  O     -269.444     -10.557     323.522
  C     -269.548     -11.578     325.749
  N     -270.627     -11.898     326.681
  C     -270.815     -13.258     326.960
  O     -270.121     -14.105     326.401
  N     -271.823     -13.624     327.821
  C     -272.583     -12.708     328.343
  N     -273.568     -13.134     329.183
  C     -272.437     -11.272     328.059
  C     -271.446     -10.940     327.225
  O     -266.860      -6.789     329.032
  O     -268.246      -8.321     330.594
  H     -269.999     -11.280     323.161
  H     -267.990      -7.768     331.367
  H     -273.104     -10.548     328.507
  H     -271.271      -9.906     326.955
  H     -269.367     -12.458     325.118
  H     -270.952     -10.111     324.833
  H     -269.615      -8.889     326.435
  H     -267.168     -10.178     325.123
  H     -273.656     -14.131     329.327
  H     -266.193      -9.979     327.383
  H     -274.237     -12.514     329.614
  H     -266.614      -8.385     326.729
  P     -269.240      -6.696     325.039
  C     -271.346      -6.934     323.592
  O     -270.833      -6.688     324.896
  O     -268.531      -5.589     324.324
  O     -269.028      -6.572     326.627
  H     -268.637      -5.696     326.830
  H     -272.393      -7.232     323.677
  H     -270.785      -7.735     323.095
  H     -271.286      -6.024     322.997
  H     -265.208     -10.610     331.055
  H     -266.770     -10.887     330.322
  H     -266.629      -9.825     331.702

 3  4  5  6  7  8  9  10  11  12  13  23  27  28  29  30  32 0
 6-311+G(2d,p)
 ****
 34  35 0
 6-311+G(2d,p)
 ****
 1  2  14  15  16  17  18  19  20  21  22  24  25  26 0
 3-21G
 ****
 31  33  36  37  38  39  40  41  42  43  44  45  46 0
 3-21G
 ****


