%nproc=1
%NoSave
%Mem=1900MB
#P OB98/GEN NMR

erre ene a

0 1
  C       39.753    -268.987     219.042
  O       39.545    -268.036     220.086
  P       38.531    -268.377     221.275
  C       39.138    -270.130     223.080
  O       39.363    -268.819     222.572
  C       40.229    -270.495     224.090
  O       41.539    -270.519     223.473
  C       40.355    -269.480     225.221
  O       39.292    -269.423     226.148
  C       41.743    -269.774     225.766
  O       41.726    -270.866     226.683
  C       42.507    -270.156     224.479
  N       43.388    -269.085     224.008
  C       44.616    -268.972     224.654
  O       44.950    -269.685     225.598
  N       45.440    -267.979     224.198
  C       45.150    -267.086     223.208
  O       45.917    -266.198     222.857
  C       43.829    -267.239     222.579
  C       43.020    -268.216     223.000
  O       37.390    -269.266     220.919
  O       37.986    -266.924     221.701
  H       41.460    -271.662     226.186
  H       37.029    -267.004     221.878
  H       46.336    -267.886     224.650
  H       43.562    -266.546     221.792
  H       42.043    -268.347     222.547
  H       43.129    -271.046     224.652
  H       42.155    -268.913     226.303
  H       40.402    -268.478     224.768
  H       40.027    -271.495     224.473
  H       39.126    -270.848     222.259
  H       38.144    -270.167     223.538
  P       37.823    -268.901     225.775
  C       35.582    -269.972     225.038
  O       36.970    -270.138     225.217
  O       37.724    -267.611     225.032
  O       37.181    -268.697     227.237
  H       36.559    -267.945     227.197
  H       35.164    -270.915     224.670
  H       35.377    -269.188     224.305
  H       35.099    -269.726     225.991
  H       40.457    -268.595     218.338
  H       38.825    -269.182     218.547
  H       40.133    -269.896     219.458

 3  4  5  6  7  8  9  10  11  12  13  23  28  29  30  31  32 0
 6-311+G(2d,p)
 ****
 33  34 0
 6-311+G(2d,p)
 ****
 1  2  14  15  16  17  18  19  20  21  22  24  25  26  27 0
 3-21G
 ****
 35  36  37  38  39  40  41  42  43  44  45 0
 3-21G
 ****


