%nproc=1
%NoSave
%Mem=1900MB
#P OB98/GEN NMR

erre ene a

0 1
  C      -96.362     -29.258    -143.073
  O      -96.827     -30.479    -143.619
  H      -95.299     -29.359    -142.838
  H      -96.907     -29.034    -142.152
  H      -96.491     -28.444    -143.791
  P      -98.302     -30.465    -144.243
  C      -97.457     -30.229    -146.715
  O      -98.220     -29.682    -145.647
  C      -98.361     -30.509    -147.913
  O      -99.129     -29.340    -148.261
  C      -97.616     -30.843    -149.195
  O      -97.041     -32.130    -149.169
  C      -98.733     -30.696    -150.218
  O      -99.518     -31.889    -150.321
  C      -99.572     -29.537    -149.623
  N      -99.464     -28.330    -150.423
  C     -100.141     -28.360    -151.651
  O     -100.785     -29.358    -151.975
  N     -100.035     -27.280    -152.484
  C      -99.299     -26.270    -152.142
  N      -99.210     -25.243    -153.029
  C      -98.567     -26.197    -150.858
  C      -98.694     -27.253    -150.054
  O      -99.068     -29.431    -143.293
  O      -98.954     -31.802    -144.341
  H      -99.749     -32.147    -149.403
  H      -98.589     -28.597    -143.156
  H      -97.979     -25.325    -150.613
  H      -98.191     -27.285    -149.094
  H     -100.633     -29.820    -149.570
  H      -98.340     -30.487    -151.216
  H      -96.859     -30.073    -149.402
  H      -99.057     -31.313    -147.636
  H      -99.681     -25.356    -153.921
  H      -96.952     -31.146    -146.397
  H      -98.607     -24.443    -152.904
  H      -96.686     -29.500    -146.981
  P      -95.833     -32.522    -150.144
  C      -94.110     -32.317    -148.236
  O      -94.505     -31.856    -149.524
  O      -96.052     -32.223    -151.587
  O      -95.601     -34.077    -149.828
  H      -95.376     -34.276    -148.903
  H      -93.221     -31.805    -147.931
  H      -93.920     -33.369    -148.277
  H      -94.892     -32.123    -147.532

 6  7  8  9  10  11  12  13  14  15  16  26  30  31  32  33  35 0
 6-311+G(2d,p)
 ****
 37  38 0
 6-311+G(2d,p)
 ****
 1  2  3  4  5  17  18  19  20  21  22  23  24  25 0
 3-21G
 ****
 27  28  29  34  36  39  40  41  42  43  44  45  46 0
 3-21G
 ****


