%nproc=1
%NoSave
%Mem=1900MB
#P OB98/GEN NMR

erre ene a

0 1
  C     -192.469      14.708      19.867
  O     -191.362      15.234      19.156
  P     -191.593      16.507      18.211
  C     -192.527      16.751      15.768
  O     -192.460      15.993      16.961
  C     -193.255      15.959      14.675
  O     -194.442      15.345      15.251
  C     -193.711      16.801      13.475
  O     -193.592      15.979      12.308
  C     -195.173      17.072      13.790
  O     -195.931      17.399      12.636
  C     -195.572      15.748      14.451
  N     -196.774      15.849      15.282
  C     -197.842      15.008      14.983
  O     -197.841      14.202      14.053
  N     -198.945      15.142      15.784
  C     -199.110      16.058      16.784
  O     -200.128      16.146      17.460
  C     -197.967      16.951      17.021
  C     -196.868      16.802      16.278
  O     -190.126      16.715      17.607
  O     -192.158      17.689      18.922
  H     -189.655      15.877      17.456
  H     -195.907      16.634      12.031
  H     -199.720      14.518      15.609
  H     -198.062      17.700      17.799
  H     -196.014      17.449      16.433
  H     -195.719      14.976      13.687
  H     -195.245      17.909      14.494
  H     -193.117      17.709      13.351
  H     -192.596      15.146      14.343
  H     -191.515      16.980      15.423
  H     -193.039      17.696      15.965
  P     -193.095      16.667      10.940
  C     -194.214      18.208       9.145
  O     -194.287      17.596      10.415
  O     -193.164      15.405       9.949
  O     -191.739      17.284      11.002
  H     -193.998      14.920      10.013
  H     -195.222      18.503       8.836
  H     -193.807      17.528       8.392
  H     -193.590      19.102       9.205
  H     -192.153      13.867      20.448
  H     -193.224      14.400      19.174
  H     -192.866      15.460      20.516

 3  4  5  6  7  8  9  10  11  12  13  24  28  29  30  31  32 0
 6-311+G(2d,p)
 ****
 33  34 0
 6-311+G(2d,p)
 ****
 1  2  14  15  16  17  18  19  20  21  22  23  25  26  27 0
 3-21G
 ****
 35  36  37  38  39  40  41  42  43  44  45 0
 3-21G
 ****


