%nproc=1
%NoSave
%Mem=1900MB
#P OB98/GEN NMR

erre ene a

0 1
  C      701.325    -899.428    -138.926
  O      700.846    -898.078    -138.990
  P      700.795    -897.268    -137.606
  C      701.452    -895.078    -138.843
  O      701.722    -895.948    -137.739
  C      701.746    -893.598    -138.465
  O      700.928    -893.248    -137.292
  C      703.211    -893.298    -138.085
  O      703.545    -891.998    -138.576
  C      703.166    -893.228    -136.568
  O      704.270    -892.478    -136.062
  C      701.800    -892.608    -136.349
  N      700.656    -890.258    -132.011
  C      700.992    -889.728    -133.233
  N      701.095    -888.388    -133.294
  N      701.254    -890.458    -134.296
  C      701.081    -891.778    -134.083
  C      700.714    -892.468    -132.943
  C      700.482    -891.608    -131.758
  O      700.213    -892.038    -130.614
  N      700.662    -893.808    -133.104
  C      701.011    -893.978    -134.372
  N      701.273    -892.778    -135.021
  O      701.619    -898.178    -136.581
  O      699.400    -897.018    -137.088
  H      705.067    -892.738    -136.570
  H      701.073    -898.438    -135.826
  H      700.482    -889.678    -131.211
  H      701.107    -894.928    -134.877
  H      701.795    -891.538    -136.571
  H      703.257    -894.228    -136.156
  H      700.858    -887.758    -132.526
  H      703.923    -894.028    -138.470
  H      701.320    -887.968    -134.209
  H      701.413    -892.968    -139.282
  H      700.414    -895.168    -139.152
  H      702.089    -895.358    -139.666
  P      705.069    -891.738    -138.982
  C      704.558    -892.088    -141.517
  O      705.305    -892.498    -140.381
  O      705.884    -892.648    -137.925
  O      705.505    -890.318    -138.962
  H      706.794    -892.278    -137.797
  H      704.005    -891.188    -141.339
  H      703.810    -892.878    -141.748
  H      705.240    -891.978    -142.358
  H      701.311    -899.859    -139.906
  H      700.695    -900.000    -138.277
  H      702.326    -899.434    -138.548

 3  4  5  6  7  8  9  10  11  12  23  26  30  31  33  0
 6-311+G(2d,p)
 ****
 35  36  37  38 0
 6-311+G(2d,p)
 ****
 1  2  13  14  15  16  17  18  19  20  21  22  24  25  27  28  29 0
 3-21G
 ****
 32  34  39  40  41  42  43  44  45  46  47  48  49 0
 3-21G
 ****


