%nproc=1
%NoSave
%Mem=1900MB
#P OB98/GEN NMR

erre ene a

0 1
  C      -29.915     -48.728    -232.008
  O      -29.390     -47.898    -233.046
  P      -27.993     -48.370    -233.683
  C      -27.206     -45.976    -234.289
  O      -27.560     -47.265    -234.765
  C      -27.465     -44.904    -235.354
  O      -26.740     -45.213    -236.582
  C      -28.948     -44.759    -235.732
  O      -29.168     -43.370    -236.009
  C      -29.033     -45.583    -237.006
  O      -30.202     -45.323    -237.766
  C      -27.708     -45.198    -237.653
  N      -28.142     -46.124    -242.649
  C      -28.675     -45.168    -241.859
  N      -28.513     -44.990    -240.530
  C      -27.698     -45.932    -240.027
  C      -27.082     -46.972    -240.706
  C      -27.331     -47.051    -242.087
  N      -26.812     -48.033    -242.897
  N      -26.335     -47.750    -239.834
  C      -26.566     -47.223    -238.646
  N      -27.310     -46.081    -238.724
  O      -28.398     -49.638    -234.569
  O      -26.951     -48.694    -232.666
  H      -30.231     -45.915    -238.543
  H      -28.197     -50.465    -234.092
  H      -29.320     -44.451    -242.360
  H      -26.218     -47.626    -237.705
  H      -27.730     -44.181    -238.066
  H      -29.040     -46.649    -236.747
  H      -29.636     -45.082    -234.947
  H      -27.081     -43.947    -234.981
  H      -26.149     -45.955    -234.013
  H      -27.052     -48.011    -243.876
  H      -26.213     -48.749    -242.514
  H      -27.767     -45.767    -233.372
  P      -29.518     -42.386    -234.791
  C      -31.986     -42.159    -235.445
  O      -30.742     -41.498    -235.330
  O      -28.305     -41.343    -234.901
  O      -29.661     -43.018    -233.449
  H      -28.202     -41.016    -235.813
  H      -32.744     -41.428    -235.742
  H      -32.273     -42.599    -234.487
  H      -31.926     -42.936    -236.212
  H      -30.841     -48.321    -231.660
  H      -29.217     -48.770    -231.198
  H      -30.079     -49.714    -232.389

 3  4  5  6  7  8  9  10  11  12  22  25  29  30  31  32 0
 6-311+G(2d,p)
 ****
 33  36  37 0
 6-311+G(2d,p)
 ****
 1  2  13  14  15  16  17  18  19  20  21  23  24  26 0
 3-21G
 ****
 27  28  34  35  38  39  40  41  42  43  44  45  46  47  48 0
 3-21G
 ****


