%nproc=1
%NoSave
%Mem=1900MB
#P OB98/GEN NMR

erre ene a

0 1
  C      -31.469    -196.851    -265.398
  O      -31.875    -197.713    -266.444
  P      -32.184    -199.265    -266.178
  C      -30.189    -200.268    -267.458
  O      -30.756    -200.002    -266.182
  C      -29.547    -201.655    -267.507
  O      -29.162    -201.969    -268.874
  C      -28.293    -201.810    -266.629
  O      -28.299    -203.163    -266.154
  C      -27.171    -201.599    -267.622
  O      -25.925    -202.118    -267.163
  C      -27.752    -202.284    -268.867
  N      -27.088    -201.854    -270.095
  C      -26.164    -202.745    -270.658
  O      -25.892    -203.802    -270.081
  N      -25.540    -202.399    -271.826
  C      -25.728    -201.217    -272.329
  N      -25.084    -200.930    -273.498
  C      -26.597    -200.199    -271.706
  C      -27.248    -200.587    -270.600
  O      -33.207    -199.871    -267.078
  O      -32.588    -199.308    -264.630
  H      -25.648    -201.603    -266.373
  H      -33.516    -198.986    -264.503
  H      -26.683    -199.211    -272.127
  H      -27.903    -199.910    -270.073
  H      -27.663    -203.375    -268.786
  H      -27.038    -200.523    -267.809
  H      -28.257    -201.108    -265.790
  H      -30.307    -202.390    -267.205
  H      -24.514    -201.664    -273.904
  H      -29.419    -199.515    -267.649
  H      -25.233    -200.076    -274.014
  H      -30.955    -200.168    -268.237
  P      -27.619    -203.561    -264.759
  C      -25.338    -204.014    -265.828
  O      -26.057    -203.238    -264.887
  O      -27.940    -204.937    -264.264
  O      -28.142    -202.441    -263.732
  H      -27.992    -202.747    -262.814
  H      -24.377    -203.526    -266.033
  H      -25.895    -204.107    -266.766
  H      -25.153    -205.010    -265.416
  H      -31.316    -195.866    -265.787
  H      -30.556    -197.212    -264.972
  H      -32.228    -196.823    -264.644

 3  4  5  6  7  8  9  10  11  12  13  23  27  28  29  30  32 0
 6-311+G(2d,p)
 ****
 34  35 0
 6-311+G(2d,p)
 ****
 1  2  14  15  16  17  18  19  20  21  22  24  25  26 0
 3-21G
 ****
 31  33  36  37  38  39  40  41  42  43  44  45  46 0
 3-21G
 ****


