%nproc=1
%NoSave
%Mem=1900MB
#P OB98/GEN NMR

erre ene a

0 1
  C      189.586     208.637     157.213
  O      189.429     207.228     157.164
  P      188.077     206.538     157.681
  C      185.622     206.559     156.919
  O      186.872     207.236     156.881
  C      184.479     207.520     156.604
  O      184.380     208.494     157.670
  C      184.673     208.287     155.300
  O      183.399     208.465     154.673
  C      185.181     209.650     155.738
  O      184.863     210.661     154.767
  C      184.487     209.810     157.092
  N      185.741     214.633     158.322
  C      184.938     214.133     157.358
  N      184.671     212.840     157.073
  C      185.289     212.027     157.943
  C      186.134     212.391     158.980
  C      186.360     213.768     159.156
  N      187.169     214.276     160.149
  N      186.607     211.273     159.642
  C      186.039     210.259     159.028
  N      185.226     210.663     158.003
  O      187.908     206.516     159.161
  O      188.115     205.066     157.065
  H      183.887     210.748     154.753
  H      187.759     204.420     157.705
  H      184.447     214.869     156.728
  H      186.190     209.220     159.277
  H      183.473     210.216     156.982
  H      186.271     209.619     155.845
  H      185.364     207.787     154.612
  H      183.540     206.955     156.587
  H      185.482     206.151     157.924
  H      187.174     215.275     160.276
  H      187.489     213.647     160.874
  H      185.637     205.728     156.206
  P      183.423     208.634     153.072
  C      184.198     207.014     151.186
  O      184.279     207.388     152.543
  O      183.873     209.997     152.660
  O      181.904     208.289     152.701
  H      181.489     207.716     153.382
  H      184.816     206.128     151.031
  H      184.575     207.819     150.549
  H      183.164     206.778     150.915
  H      190.548     208.902     156.827
  H      189.505     208.970     158.227
  H      188.824     209.102     156.623

 3  4  5  6  7  8  9  10  11  12  22  25  29  30  31  32 0
 6-311+G(2d,p)
 ****
 33  36  37 0
 6-311+G(2d,p)
 ****
 1  2  13  14  15  16  17  18  19  20  21  23  24  26 0
 3-21G
 ****
 27  28  34  35  38  39  40  41  42  43  44  45  46  47  48 0
 3-21G
 ****


