%nproc=1
%NoSave
%Mem=1900MB
#P OB98/GEN NMR

erre ene a

0 1
  C     -446.343    -439.235     587.545
  O     -445.552    -439.192     586.370
  P     -446.262    -439.698     585.015
  C     -446.692    -437.269     584.148
  O     -446.065    -438.518     583.935
  C     -446.253    -436.274     583.059
  O     -444.818    -436.123     583.091
  C     -446.613    -436.715     581.629
  O     -447.947    -436.395     581.332
  C     -445.589    -435.916     580.810
  O     -446.016    -434.566     580.626
  C     -444.348    -435.972     581.725
  N     -439.535    -437.599     581.978
  C     -440.077    -436.351     582.264
  N     -439.226    -435.412     582.716
  N     -441.347    -436.043     582.118
  C     -442.067    -437.094     581.628
  C     -441.676    -438.349     581.296
  C     -440.266    -438.694     581.519
  O     -439.781    -439.803     581.387
  N     -442.699    -439.110     580.824
  C     -443.750    -438.305     580.901
  N     -443.424    -437.078     581.387
  O     -447.822    -439.636     585.363
  O     -445.835    -441.060     584.535
  H     -445.972    -434.082     581.497
  H     -448.163    -440.537     585.612
  H     -438.560    -437.775     582.133
  H     -444.766    -438.587     580.621
  H     -443.756    -435.048     581.663
  H     -445.445    -436.344     579.811
  H     -438.216    -435.573     582.845
  H     -446.425    -437.781     581.503
  H     -439.579    -434.496     582.921
  H     -446.693    -435.290     583.282
  H     -446.388    -436.868     585.120
  H     -447.783    -437.395     584.127
  P     -448.829    -437.479     580.573
  C     -449.523    -438.726     582.759
  O     -449.946    -438.019     581.602
  O     -447.826    -438.731     580.430
  O     -449.344    -437.043     579.231
  H     -447.976    -439.177     579.558
  H     -450.244    -438.544     583.536
  H     -448.534    -438.411     583.102
  H     -449.493    -439.790     582.530
  H     -445.769    -438.878     588.374
  H     -446.650    -440.243     587.732
  H     -447.207    -438.617     587.416

 3  4  5  6  7  8  9  10  11  12  23  26  30  31 0
 6-311+G(2d,p)
 ****
 33  35  36  37  38 0
 6-311+G(2d,p)
 ****
 1  2  13  14  15  16  17  18  19  20  21  22  24  25 0
 3-21G
 ****
 27  28  29  32  34  39  40  41  42  43  44  45  46  47  48  49 0
 3-21G
 ****


