%nproc=1
%NoSave
%Mem=1900MB
#P OB98/GEN NMR

erre ene a

0 1
  C     -214.264      97.030     427.784
  O     -214.519      98.256     427.086
  P     -215.822      99.105     427.501
  C     -216.133     100.398     425.251
  O     -215.820     100.471     426.638
  C     -216.410     101.794     424.707
  O     -217.578     102.395     425.317
  C     -215.272     102.785     424.930
  O     -214.256     102.662     423.943
  C     -215.993     104.118     424.764
  O     -216.145     104.414     423.372
  C     -217.353     103.832     425.409
  N     -216.723     107.705     428.610
  C     -216.588     107.650     427.227
  N     -216.226     108.798     426.612
  N     -216.763     106.574     426.527
  C     -217.147     105.499     427.276
  C     -217.321     105.431     428.637
  C     -217.094     106.636     429.406
  O     -217.191     106.735     430.629
  N     -217.689     104.171     429.031
  C     -217.760     103.484     427.903
  N     -217.425     104.240     426.803
  O     -215.456      99.623     428.975
  O     -217.092      98.329     427.483
  H     -216.657     103.677     422.975
  H     -216.273      99.754     429.485
  H     -216.564     108.566     429.097
  H     -218.050     102.440     427.827
  H     -218.182     104.327     424.892
  H     -215.435     104.951     425.211
  H     -216.118     109.689     427.086
  H     -214.873     102.705     425.953
  H     -216.143     108.786     425.604
  H     -216.589     101.715     423.612
  H     -217.017      99.754     425.090
  H     -215.313      99.905     424.715
  P     -212.729     102.622     424.436
  C     -211.061     103.993     422.988
  O     -211.834     102.822     423.119
  O     -212.519     101.077     424.829
  O     -212.417     103.533     425.586
  H     -211.872     101.003     425.553
  H     -210.401     103.881     422.128
  H     -210.448     104.153     423.882
  H     -211.712     104.865     422.823
  H     -213.371      96.581     427.402
  H     -215.088      96.362     427.643
  H     -214.143      97.232     428.828

 3  4  5  6  7  8  9  10  11  12  23  26  30  31 0
 6-311+G(2d,p)
 ****
 33  35  36  37  38 0
 6-311+G(2d,p)
 ****
 1  2  13  14  15  16  17  18  19  20  21  22  24  25 0
 3-21G
 ****
 27  28  29  32  34  39  40  41  42  43  44  45  46  47  48  49 0
 3-21G
 ****


