%nproc=1
%NoSave
%Mem=1900MB
#P OB98/GEN NMR

erre ene a

0 1
  C      467.539    -328.371      28.914
  O      467.053    -327.158      28.368
  H      466.731    -328.860      29.465
  H      468.359    -328.164      29.607
  H      467.879    -329.041      28.118
  P      468.049    -326.334      27.422
  C      466.096    -324.935      26.411
  O      467.328    -324.930      27.119
  C      465.443    -323.554      26.504
  O      464.898    -323.387      27.842
  C      466.421    -322.400      26.254
  O      465.744    -321.356      25.544
  C      466.772    -321.928      27.657
  O      467.221    -320.580      27.710
  C      465.433    -322.153      28.379
  N      465.587    -322.242      29.827
  C      466.249    -321.204      30.470
  O      466.652    -320.178      29.915
  N      466.453    -321.369      31.819
  C      466.089    -322.459      32.559
  O      466.322    -322.561      33.758
  C      465.395    -323.533      31.821
  C      465.182    -323.374      30.514
  O      467.955    -327.103      26.021
  O      469.454    -326.212      27.914
  H      468.627    -327.807      25.971
  H      467.445    -320.375      28.642
  H      466.931    -320.618      32.295
  H      465.109    -324.410      32.378
  H      464.694    -324.159      29.938
  H      464.727    -321.358      28.128
  H      467.548    -322.569      28.081
  H      467.307    -322.709      25.696
  H      464.601    -323.516      25.809
  H      465.431    -325.682      26.861
  H      466.276    -325.204      25.367
  P      466.216    -321.061      24.034
  C      463.847    -320.322      23.192
  O      465.194    -319.957      23.467
  O      465.793    -322.415      23.303
  O      467.665    -320.710      23.941
  H      464.957    -322.794      23.633
  H      463.314    -319.470      22.825
  H      463.382    -320.673      24.090
  H      463.831    -321.097      22.455

 6  7  8  9  10  11  12  13  14  15  16  27  31  32  33  34  35 0
 6-311+G(2d,p)
 ****
 36  37 0
 6-311+G(2d,p)
 ****
 1  2  3  4  5  17  18  19  20  21  22  23  24  25 0
 3-21G
 ****
 26  28  29  30  38  39  40  41  42  43  44  45 0
 3-21G
 ****


