%nproc=1
%NoSave
%Mem=1900MB
#P OB98/GEN NMR

erre ene a

0 1
  C      151.502    -593.259    -209.953
  O      151.636    -591.984    -210.548
  H      150.438    -593.457    -209.780
  H      152.024    -593.293    -208.994
  H      151.897    -594.030    -210.617
  P      153.104    -591.376    -210.763
  C      152.334    -590.191    -212.917
  O      152.927    -590.038    -211.631
  C      151.880    -588.839    -213.469
  O      150.758    -588.371    -212.672
  C      152.977    -587.762    -213.429
  O      152.846    -586.955    -214.603
  C      152.615    -586.964    -212.197
  O      153.140    -585.649    -212.250
  C      151.087    -587.056    -212.177
  N      150.561    -586.828    -210.830
  C      150.150    -585.524    -210.535
  O      150.239    -584.637    -211.385
  N      149.734    -585.237    -209.260
  C      149.760    -586.158    -208.348
  N      149.356    -585.801    -207.095
  C      150.205    -587.549    -208.611
  C      150.585    -587.813    -209.860
  O      154.136    -592.322    -211.279
  O      153.497    -590.821    -209.313
  H      153.035    -585.220    -211.377
  H      153.959    -591.510    -208.804
  H      150.219    -588.274    -207.813
  H      150.936    -588.795    -210.143
  H      150.647    -586.312    -212.860
  H      153.031    -587.456    -211.305
  H      153.989    -588.181    -213.373
  H      151.509    -588.986    -214.490
  H      149.087    -584.831    -206.958
  H      151.466    -590.853    -212.811
  H      149.380    -586.411    -206.297
  H      153.054    -590.657    -213.604
  P      153.886    -587.106    -215.824
  C      152.144    -587.460    -217.676
  O      153.175    -586.611    -217.180
  O      154.536    -588.451    -215.921
  O      154.977    -585.967    -215.546
  H      155.842    -586.257    -215.899
  H      151.740    -587.043    -218.575
  H      151.369    -587.546    -216.943
  H      152.548    -588.429    -217.883

 6  7  8  9  10  11  12  13  14  15  16  26  30  31  32  33  35 0
 6-311+G(2d,p)
 ****
 37  38 0
 6-311+G(2d,p)
 ****
 1  2  3  4  5  17  18  19  20  21  22  23  24  25 0
 3-21G
 ****
 27  28  29  34  36  39  40  41  42  43  44  45  46 0
 3-21G
 ****


