%nproc=1
%NoSave
%Mem=1900MB
#P OB98/GEN NMR

erre ene a

0 1
  C      558.804    -424.123    -448.035
  O      558.996    -424.807    -449.258
  H      559.247    -423.126    -448.116
  H      559.305    -424.667    -447.225
  H      557.737    -424.021    -447.814
  P      558.263    -426.231    -449.413
  C      556.723    -425.584    -451.444
  O      556.836    -425.910    -450.069
  C      555.630    -426.409    -452.109
  O      556.076    -427.790    -452.218
  C      554.298    -426.410    -451.341
  O      553.228    -426.445    -452.282
  C      554.341    -427.729    -450.582
  O      553.033    -428.180    -450.225
  C      555.091    -428.623    -451.577
  N      555.710    -429.788    -450.937
  C      554.912    -430.930    -450.798
  O      553.746    -430.928    -451.205
  N      555.433    -432.036    -450.175
  C      556.632    -431.978    -449.672
  N      557.085    -433.101    -449.038
  C      557.493    -430.784    -449.750
  C      556.974    -429.734    -450.393
  O      557.910    -426.579    -447.890
  O      559.071    -427.268    -450.117
  H      552.642    -427.534    -449.598
  H      557.545    -425.830    -447.396
  H      558.477    -430.785    -449.298
  H      557.536    -428.819    -450.510
  H      554.417    -428.991    -452.360
  H      554.921    -427.620    -449.662
  H      554.198    -425.540    -450.684
  H      555.483    -426.041    -453.137
  H      556.453    -433.889    -448.988
  H      557.676    -425.763    -451.955
  H      557.972    -433.150    -448.561
  H      556.500    -424.513    -451.518
  P      552.572    -425.064    -452.777
  C      552.291    -426.096    -455.133
  O      552.691    -424.957    -454.367
  O      552.992    -423.849    -452.021
  O      551.003    -425.335    -452.565
  H      550.608    -424.513    -452.204
  H      552.422    -425.889    -456.175
  H      551.261    -426.313    -454.939
  H      552.891    -426.939    -454.859

 6  7  8  9  10  11  12  13  14  15  16  26  30  31  32  33  35 0
 6-311+G(2d,p)
 ****
 37  38 0
 6-311+G(2d,p)
 ****
 1  2  3  4  5  17  18  19  20  21  22  23  24  25 0
 3-21G
 ****
 27  28  29  34  36  39  40  41  42  43  44  45  46 0
 3-21G
 ****


