%nproc=1
%NoSave
%Mem=1900MB
#P OB98/GEN NMR

erre ene a

0 1
  C     -191.562     183.502     -17.866
  O     -191.792     182.389     -17.031
  H     -190.883     184.194     -17.351
  H     -192.498     184.022     -18.076
  H     -191.095     183.176     -18.801
  P     -192.848     181.296     -17.549
  C     -191.486     179.166     -18.160
  O     -192.078     180.373     -18.618
  C     -190.651     178.557     -19.289
  O     -189.428     179.311     -19.448
  C     -190.209     177.127     -19.024
  O     -191.230     176.177     -19.281
  C     -189.053     176.997     -20.003
  O     -189.504     176.645     -21.322
  C     -188.436     178.404     -19.988
  N     -187.198     178.442     -19.225
  C     -186.228     177.505     -19.592
  O     -186.397     176.688     -20.494
  N     -185.081     177.509     -18.844
  C     -184.825     178.307     -17.776
  O     -183.792     178.222     -17.118
  C     -185.879     179.268     -17.425
  C     -187.004     179.297     -18.143
  O     -193.855     182.163     -18.440
  O     -193.556     180.541     -16.466
  H     -194.705     182.273     -17.966
  H     -189.801     175.709     -21.263
  H     -184.369     176.832     -19.098
  H     -185.712     179.921     -16.571
  H     -187.799     179.980     -17.909
  H     -188.222     178.744     -21.006
  H     -188.358     176.223     -19.694
  H     -189.820     177.031     -18.006
  H     -191.224     178.623     -20.226
  H     -192.265     178.453     -17.880
  H     -190.868     179.377     -17.285
  P     -192.121     175.684     -18.028
  C     -194.376     176.224     -19.269
  O     -193.522     176.454     -18.159
  O     -191.366     176.421     -16.827
  O     -192.203     174.199     -17.917
  H     -190.911     177.240     -17.121
  H     -195.255     176.827     -19.174
  H     -194.654     175.191     -19.297
  H     -193.863     176.480     -20.173

 6  7  8  9  10  11  12  13  14  15  16  27  31  32  33  34  35 0
 6-311+G(2d,p)
 ****
 36  37 0
 6-311+G(2d,p)
 ****
 1  2  3  4  5  17  18  19  20  21  22  23  24  25 0
 3-21G
 ****
 26  28  29  30  38  39  40  41  42  43  44  45 0
 3-21G
 ****


