%nproc=1
%NoSave
%Mem=1900MB
#P OB98/GEN NMR

erre ene a

0 1
  C     -152.143    -181.473     -42.111
  O     -153.295    -180.873     -41.515
  P     -154.017    -179.649     -42.252
  C     -155.987    -181.036     -43.190
  O     -154.873    -180.204     -43.488
  C     -157.140    -180.733     -44.149
  O     -157.473    -179.323     -44.149
  C     -156.804    -181.049     -45.601
  O     -156.674    -182.414     -45.940
  C     -157.844    -180.242     -46.358
  O     -159.090    -180.932     -46.443
  C     -157.977    -178.988     -45.460
  N     -157.289    -177.822     -46.012
  C     -157.864    -177.252     -47.144
  O     -158.865    -177.706     -47.695
  N     -157.223    -176.152     -47.649
  C     -156.072    -175.604     -47.164
  O     -155.528    -174.628     -47.671
  C     -155.498    -176.264     -45.982
  C     -156.121    -177.325     -45.468
  O     -153.151    -178.473     -42.553
  O     -155.164    -179.236     -41.202
  H     -159.682    -180.398     -47.004
  H     -155.208    -178.260     -41.179
  H     -157.630    -175.721     -48.464
  H     -154.582    -175.858     -45.574
  H     -155.716    -177.827     -44.596
  H     -159.033    -178.721     -45.330
  H     -157.524    -180.032     -47.384
  H     -155.829    -180.596     -45.826
  H     -158.025    -181.278     -43.814
  H     -156.303    -180.879     -42.156
  H     -155.676    -182.086     -43.261
  P     -155.324    -183.251     -45.718
  C     -156.641    -185.156     -44.552
  O     -155.553    -184.262     -44.495
  O     -154.038    -182.497     -45.751
  O     -155.362    -184.251     -46.975
  H     -154.444    -184.425     -47.257
  H     -156.652    -185.753     -43.634
  H     -156.537    -185.830     -45.405
  H     -157.583    -184.607     -44.623
  H     -151.793    -182.269     -41.488
  H     -151.373    -180.738     -42.217
  H     -152.401    -181.861     -43.074

 3  4  5  6  7  8  9  10  11  12  13  23  28  29  30  31  32 0
 6-311+G(2d,p)
 ****
 33  34 0
 6-311+G(2d,p)
 ****
 1  2  14  15  16  17  18  19  20  21  22  24  25  26  27 0
 3-21G
 ****
 35  36  37  38  39  40  41  42  43  44  45 0
 3-21G
 ****


