%nproc=1
%NoSave
%Mem=1900MB
#P OB98/GEN NMR

erre ene a

0 1
  C       78.100     -30.451      36.091
  O       77.215     -29.688      36.913
  P       76.150     -28.772      36.136
  C       74.089     -29.343      37.601
  O       75.016     -28.349      37.192
  C       74.565     -30.047      38.877
  O       74.982     -29.070      39.878
  C       73.489     -30.929      39.531
  O       74.170     -32.056      40.098
  C       72.952     -30.018      40.622
  O       72.205     -30.707      41.611
  C       74.252     -29.374      41.086
  N       72.655     -27.628      45.604
  C       72.718     -28.875      45.088
  N       73.154     -29.259      43.870
  C       73.561     -28.193      43.159
  C       73.556     -26.863      43.549
  C       73.075     -26.591      44.840
  N       72.986     -25.323      45.367
  N       74.031     -26.053      42.528
  C       74.245     -26.884      41.524
  N       74.055     -28.187      41.884
  O       75.408     -29.804      35.165
  O       76.769     -27.635      35.393
  H       71.728     -30.066      42.174
  H       75.772     -29.746      34.263
  H       72.366     -29.670      45.740
  H       74.537     -26.595      40.524
  H       74.866     -30.064      41.679
  H       72.289     -29.268      40.173
  H       72.728     -31.285      38.832
  H       75.443     -30.654      38.628
  H       73.962     -30.086      36.810
  H       72.623     -25.228      46.302
  H       73.278     -24.523      44.827
  H       73.108     -28.879      37.747
  P       73.593     -33.528      39.820
  C       75.959     -33.979      38.940
  O       74.897     -34.461      39.740
  O       73.205     -33.402      38.269
  O       72.476     -33.976      40.698
  H       73.941     -33.032      37.751
  H       76.807     -34.663      39.036
  H       76.266     -32.985      39.275
  H       75.651     -33.944      37.891
  H       78.761     -31.020      36.711
  H       78.671     -29.790      35.472
  H       77.531     -31.114      35.474

 3  4  5  6  7  8  9  10  11  12  22  25  29  30  31  32 0
 6-311+G(2d,p)
 ****
 33  36  37 0
 6-311+G(2d,p)
 ****
 1  2  13  14  15  16  17  18  19  20  21  23  24  26 0
 3-21G
 ****
 27  28  34  35  38  39  40  41  42  43  44  45  46  47  48 0
 3-21G
 ****


