%nproc=1
%NoSave
%Mem=1900MB
#P OB98/GEN NMR

erre ene a

0 1
  C      318.180    -125.249      80.152
  O      317.967    -124.076      80.910
  H      318.651    -124.971      79.205
  H      317.227    -125.741      79.934
  H      318.845    -125.936      80.684
  P      317.277    -124.213      82.354
  C      315.007    -122.991      82.065
  O      315.698    -124.234      82.035
  C      314.947    -122.385      80.667
  O      314.233    -123.250      79.750
  C      314.214    -121.051      80.577
  O      314.942    -119.958      81.108
  C      314.039    -120.949      79.069
  O      315.292    -120.577      78.464
  C      313.653    -122.404      78.718
  N      312.207    -122.601      78.644
  C      311.571    -122.191      77.463
  O      312.220    -121.686      76.550
  N      310.206    -122.338      77.360
  C      309.532    -122.822      78.358
  N      308.179    -122.937      78.199
  C      310.156    -123.246      79.626
  C      311.478    -123.111      79.701
  O      317.712    -123.220      83.384
  O      317.538    -125.735      82.782
  H      315.124    -120.448      77.510
  H      317.138    -125.868      83.676
  H      309.543    -123.619      80.439
  H      312.007    -123.400      80.603
  H      314.101    -122.704      77.759
  H      313.303    -120.202      78.770
  H      313.219    -121.121      81.037
  H      315.978    -122.301      80.298
  H      307.782    -122.638      77.318
  H      315.531    -122.325      82.759
  H      307.570    -123.234      78.951
  H      313.987    -123.141      82.418
  P      314.095    -118.662      81.547
  C      314.394    -116.504      80.095
  O      313.856    -117.815      80.205
  O      315.161    -117.796      82.369
  O      312.850    -118.943      82.331
  H      315.044    -117.925      83.332
  H      314.138    -116.092      79.141
  H      315.459    -116.546      80.192
  H      313.990    -115.886      80.870

 6  7  8  9  10  11  12  13  14  15  16  26  30  31  32  33  35 0
 6-311+G(2d,p)
 ****
 37  38 0
 6-311+G(2d,p)
 ****
 1  2  3  4  5  17  18  19  20  21  22  23  24  25 0
 3-21G
 ****
 27  28  29  34  36  39  40  41  42  43  44  45  46 0
 3-21G
 ****


