%nproc=1
%NoSave
%Mem=1900MB
#P OB98/GEN NMR

erre ene a

0 1
  C      -99.246    -210.883      14.234
  O      -99.764    -212.150      13.834
  P      -98.884    -213.460      14.116
  C     -100.734    -214.636      15.477
  O      -99.400    -214.140      15.476
  C     -101.201    -214.928      16.912
  O     -101.255    -213.677      17.651
  C     -102.603    -215.536      17.026
  O     -102.729    -216.955      16.982
  C     -103.002    -215.107      18.436
  O     -102.452    -216.026      19.399
  C     -102.342    -213.741      18.598
  N     -106.525    -211.367      20.342
  C     -105.845    -212.444      20.791
  N     -104.740    -213.013      20.267
  C     -104.334    -212.350      19.174
  C     -104.924    -211.235      18.602
  C     -106.076    -210.738      19.232
  N     -106.776    -209.647      18.769
  N     -104.227    -210.836      17.480
  C     -103.245    -211.708      17.368
  N     -103.257    -212.634      18.374
  O      -97.407    -213.289      14.004
  O      -99.423    -214.483      13.002
  H     -102.659    -215.661      20.279
  H      -98.672    -215.014      12.673
  H     -106.241    -212.914      21.687
  H     -102.506    -211.707      16.580
  H     -101.912    -213.601      19.596
  H     -104.086    -215.112      18.582
  H     -103.284    -215.085      16.295
  H     -100.470    -215.581      17.404
  H     -100.784    -215.552      14.882
  H     -107.619    -209.383      19.254
  H     -106.490    -209.202      17.910
  H     -101.360    -213.898      14.974
  P     -103.122    -217.717      15.630
  C     -100.711    -218.701      15.379
  O     -101.746    -217.914      14.832
  O     -104.211    -217.081      14.838
  O     -103.453    -219.193      16.147
  H     -102.683    -219.686      16.476
  H      -99.964    -218.885      14.604
  H     -101.097    -219.660      15.734
  H     -100.236    -218.163      16.205
  H      -99.946    -210.115      13.978
  H      -98.319    -210.702      13.732
  H      -99.085    -210.881      15.292

 3  4  5  6  7  8  9  10  11  12  22  25  29  30  31  32 0
 6-311+G(2d,p)
 ****
 33  36  37 0
 6-311+G(2d,p)
 ****
 1  2  13  14  15  16  17  18  19  20  21  23  24  26 0
 3-21G
 ****
 27  28  34  35  38  39  40  41  42  43  44  45  46  47  48 0
 3-21G
 ****


