%nproc=1
%NoSave
%Mem=1900MB
#P OB98/GEN NMR

erre ene a

0 1
  C      213.824      37.170    -573.330
  O      214.257      37.570    -574.632
  P      213.317      38.609    -575.415
  C      211.581      36.721    -575.834
  O      211.805      38.052    -575.384
  C      210.700      36.681    -577.092
  O      209.483      37.453    -576.905
  C      211.397      37.230    -578.346
  O      210.919      36.490    -579.465
  C      210.857      38.653    -578.436
  O      210.995      39.173    -579.754
  C      209.414      38.435    -577.964
  N      208.774      39.675    -577.503
  C      208.097      40.433    -578.464
  O      208.121      40.090    -579.647
  N      207.448      41.578    -578.078
  C      207.514      41.964    -576.835
  N      206.848      43.104    -576.509
  C      208.261      41.229    -575.798
  C      208.856      40.102    -576.196
  O      213.759      38.433    -576.944
  O      213.475      40.022    -574.967
  H      210.625      40.091    -579.762
  H      213.929      39.304    -577.347
  H      208.312      41.601    -574.780
  H      209.434      39.496    -575.504
  H      208.798      38.020    -578.764
  H      211.401      39.313    -577.738
  H      212.490      37.176    -578.292
  H      210.402      35.639    -577.270
  H      206.340      43.571    -577.249
  H      211.096      36.139    -575.041
  H      206.838      43.507    -575.579
  H      212.549      36.235    -576.013
  P      211.879      35.381    -580.120
  C      212.315      36.928    -582.133
  O      212.896      36.222    -581.044
  O      210.910      34.725    -581.222
  O      212.480      34.343    -579.231
  H      211.371      33.978    -581.658
  H      213.090      37.549    -582.596
  H      211.508      37.584    -581.777
  H      211.935      36.226    -582.875
  H      214.530      36.481    -572.915
  H      212.866      36.699    -573.402
  H      213.752      38.030    -572.698

 3  4  5  6  7  8  9  10  11  12  13  21  23  27  28  29  30  32 0
 6-311+G(2d,p)
 ****
 34  35 0
 6-311+G(2d,p)
 ****
 1  2  14  15  16  17  18  19  20  22  24  25  26 0
 3-21G
 ****
 31  33  36  37  38  39  40  41  42  43  44  45  46 0
 3-21G
 ****


