%nproc=1
%NoSave
%Mem=1900MB
#P OB98/GEN NMR

erre ene a

0 1
  C      -44.015     -42.632    -553.733
  O      -43.717     -44.031    -553.810
  P      -44.356     -44.829    -555.051
  C      -46.524     -45.539    -553.808
  O      -45.954     -44.809    -554.894
  C      -47.959     -45.992    -554.120
  O      -48.805     -44.821    -554.241
  C      -48.109     -46.801    -555.409
  O      -49.108     -47.812    -555.204
  C      -48.693     -45.792    -556.387
  O      -49.392     -46.417    -557.462
  C      -49.580     -44.968    -555.445
  N      -53.159     -42.307    -557.840
  C      -53.201     -43.597    -557.343
  N      -54.356     -44.274    -557.520
  N      -52.200     -44.162    -556.711
  C      -51.125     -43.352    -556.573
  C      -50.970     -42.059    -557.020
  C      -52.067     -41.456    -557.749
  O      -52.068     -40.333    -558.261
  N      -49.724     -41.567    -556.688
  C      -49.138     -42.563    -556.054
  N      -49.940     -43.673    -555.969
  O      -43.946     -46.346    -554.759
  O      -43.841     -44.368    -556.380
  H      -50.233     -46.755    -557.095
  H      -43.452     -46.716    -555.517
  H      -53.953     -41.924    -558.331
  H      -48.125     -42.542    -555.661
  H      -50.509     -45.509    -555.195
  H      -47.882     -45.185    -556.815
  H      -55.184     -43.880    -557.931
  H      -47.189     -47.256    -555.778
  H      -54.428     -45.207    -557.122
  H      -48.326     -46.572    -553.262
  H      -46.529     -44.914    -552.911
  H      -45.889     -46.413    -553.607
  P      -48.579     -49.241    -554.675
  C      -48.025     -49.673    -557.189
  O      -47.616     -49.798    -555.832
  O      -49.882     -50.166    -554.768
  O      -48.000     -49.202    -553.292
  H      -49.822     -50.893    -554.115
  H      -48.898     -49.006    -557.298
  H      -48.291     -50.663    -557.563
  H      -47.196     -49.268    -557.767
  H      -43.538     -42.213    -552.872
  H      -45.074     -42.497    -553.656
  H      -43.656     -42.142    -554.614

 3  4  5  6  7  8  9  10  11  12  23  26  30  31  33  0
 6-311+G(2d,p)
 ****
 35  36  37  38 0
 6-311+G(2d,p)
 ****
 1  2  13  14  15  16  17  18  19  20  21  22  24  25  27  28  29 0
 3-21G
 ****
 32  34  39  40  41  42  43  44  45  46  47  48  49 0
 3-21G
 ****


