%nproc=1
%NoSave
%Mem=1900MB
#P OB98/GEN NMR

erre ene a

0 1
  C      388.936     226.579    -375.302
  O      388.460     226.404    -376.621
  P      388.319     224.944    -377.271
  C      386.045     224.264    -376.279
  O      387.451     224.085    -376.225
  C      385.310     223.116    -375.596
  O      385.621     221.864    -376.271
  C      385.649     222.928    -374.109
  O      384.454     222.467    -373.474
  C      386.695     221.828    -374.148
  O      386.851     221.179    -372.892
  C      386.146     220.953    -375.280
  N      387.168     220.068    -375.830
  C      387.526     218.964    -375.054
  O      387.049     218.819    -373.927
  N      388.464     218.086    -375.541
  C      389.062     218.346    -376.663
  N      389.973     217.439    -377.101
  C      388.802     219.567    -377.452
  C      387.841     220.368    -376.992
  O      389.598     224.312    -377.698
  O      387.282     225.169    -378.472
  H      387.549     220.495    -372.982
  H      387.737     225.595    -379.242
  H      389.362     219.769    -378.352
  H      387.580     221.282    -377.501
  H      385.307     220.340    -374.926
  H      387.665     222.252    -374.427
  H      386.018     223.838    -373.626
  H      384.230     223.281    -375.705
  H      390.109     216.611    -376.538
  H      385.744     224.295    -377.329
  H      390.432     217.505    -377.995
  H      385.773     225.226    -375.823
  P      384.146     222.804    -371.934
  C      382.098     224.296    -372.255
  O      383.466     224.244    -371.899
  O      385.306     222.627    -371.006
  O      382.937     221.818    -371.553
  H      382.855     221.768    -370.581
  H      381.679     225.252    -371.927
  H      381.537     223.483    -371.784
  H      381.999     224.222    -373.343
  H      388.953     227.622    -375.064
  H      389.926     226.179    -375.224
  H      388.290     226.068    -374.619

 3  4  5  6  7  8  9  10  11  12  13  23  27  28  29  30  32 0
 6-311+G(2d,p)
 ****
 34  35 0
 6-311+G(2d,p)
 ****
 1  2  14  15  16  17  18  19  20  21  22  24  25  26 0
 3-21G
 ****
 31  33  36  37  38  39  40  41  42  43  44  45  46 0
 3-21G
 ****


