%nproc=1
%NoSave
%Mem=1900MB
#P OB98/GEN NMR

erre ene a

0 1
  C       39.271     126.359      14.474
  O       38.621     126.651      13.233
  P       38.827     128.134      12.640
  C       37.699     130.454      12.994
  O       37.658     129.054      13.239
  C       36.410     131.125      13.458
  O       35.333     130.874      12.536
  C       35.900     130.636      14.808
  O       36.600     131.243      15.885
  C       34.455     131.112      14.766
  O       34.384     132.498      15.152
  C       34.090     130.947      13.281
  N       29.433     129.012      12.765
  C       29.830     130.305      13.053
  N       28.841     131.214      13.198
  N       31.076     130.670      13.186
  C       31.956     129.660      12.986
  C       31.690     128.340      12.699
  C       30.300     127.942      12.585
  O       29.897     126.804      12.364
  N       32.844     127.612      12.556
  C       33.810     128.496      12.730
  N       33.321     129.750      13.007
  O       38.413     127.964      11.104
  O       40.214     128.659      12.794
  H       33.450     132.771      15.058
  H       38.873     128.631      10.558
  H       28.457     128.782      12.682
  H       34.868     128.280      12.661
  H       33.535     131.811      12.900
  H       33.807     130.558      15.454
  H       27.865     131.020      13.037
  H       35.930     129.540      14.864
  H       29.115     132.176      13.372
  H       36.588     132.210      13.497
  H       37.843     130.638      11.926
  H       38.570     130.877      13.507
  P       37.705     130.352      16.635
  C       37.623     128.647      18.590
  O       36.896     129.488      17.717
  O       38.504     131.427      17.511
  O       38.608     129.587      15.723
  H       39.423     131.132      17.648
  H       38.519     129.147      18.969
  H       37.908     127.728      18.064
  H       36.984     128.385      19.438
  H       39.058     125.350      14.759
  H       38.913     127.026      15.230
  H       40.328     126.482      14.361

 3  4  5  6  7  8  9  10  11  12  23  26  30  31  33  0
 6-311+G(2d,p)
 ****
 35  36  37  38 0
 6-311+G(2d,p)
 ****
 1  2  13  14  15  16  17  18  19  20  21  22  24  25  27  28  29 0
 3-21G
 ****
 32  34  39  40  41  42  43  44  45  46  47  48  49 0
 3-21G
 ****


