%nproc=1
%NoSave
%Mem=1900MB
#P OB98/GEN NMR

erre ene a

0 1
  C     -344.469    -350.022     -69.608
  O     -343.540    -350.168     -68.557
  H     -345.074    -350.936     -69.661
  H     -343.943    -349.898     -70.551
  H     -345.141    -349.178     -69.438
  P     -342.729    -348.872     -68.065
  C     -342.447    -349.495     -65.580
  O     -343.104    -348.657     -66.518
  C     -343.271    -350.764     -65.311
  O     -343.443    -351.484     -66.560
  C     -342.613    -351.723     -64.294
  O     -343.675    -352.399     -63.608
  C     -341.886    -352.683     -65.218
  O     -341.543    -353.879     -64.557
  C     -342.900    -352.812     -66.358
  N     -342.305    -353.349     -67.586
  C     -342.668    -354.642     -67.937
  O     -343.429    -355.341     -67.259
  N     -342.106    -355.145     -69.075
  C     -341.162    -354.508     -69.835
  O     -340.663    -355.018     -70.838
  C     -340.791    -353.158     -69.395
  C     -341.359    -352.652     -68.317
  O     -342.871    -347.655     -68.916
  O     -341.202    -349.360     -67.978
  H     -341.012    -354.449     -65.148
  H     -340.604    -348.621     -68.165
  H     -342.358    -356.081     -69.352
  H     -340.043    -352.629     -69.979
  H     -341.104    -351.656     -67.957
  H     -343.727    -353.469     -66.074
  H     -340.952    -352.236     -65.590
  H     -341.958    -351.226     -63.589
  H     -344.271    -350.462     -64.978
  H     -342.329    -348.928     -64.650
  H     -341.460    -349.764     -65.962
  P     -344.509    -351.700     -62.438
  C     -346.826    -352.807     -62.601
  O     -346.054    -351.632     -62.850
  O     -343.951    -350.400     -61.970
  O     -344.491    -352.766     -61.229
  H     -344.565    -352.305     -60.376
  H     -347.836    -352.644     -62.915
  H     -346.810    -353.029     -61.555
  H     -346.411    -353.629     -63.147

 6  7  8  9  10  11  12  13  14  15  16  26  31  32  33  34  35 0
 6-311+G(2d,p)
 ****
 36  37 0
 6-311+G(2d,p)
 ****
 1  2  3  4  5  17  18  19  20  21  22  23  24  25 0
 3-21G
 ****
 27  28  29  30  38  39  40  41  42  43  44  45 0
 3-21G
 ****


