%nproc=1
%NoSave
%Mem=1900MB
#P OB98/GEN NMR

erre ene a

0 1
  C      174.605    -318.781      67.943
  O      175.357    -317.604      68.271
  P      176.066    -317.557      69.706
  C      178.226    -318.905      69.087
  O      176.985    -318.869      69.779
  C      179.314    -318.242      69.928
  O      179.626    -319.050      71.089
  C      180.641    -318.061      69.209
  O      180.572    -316.988      68.272
  C      181.584    -317.827      70.381
  O      181.495    -316.465      70.829
  C      180.994    -318.771      71.452
  N      181.765    -319.998      71.617
  C      183.043    -319.840      72.176
  O      183.508    -318.750      72.481
  N      183.768    -320.992      72.325
  C      183.366    -322.250      71.970
  O      184.055    -323.251      72.151
  C      182.038    -322.340      71.349
  C      181.308    -321.232      71.203
  O      174.833    -317.880      70.672
  O      176.756    -316.263      69.972
  H      174.207    -318.511      70.282
  H      181.932    -316.432      71.710
  H      184.684    -320.902      72.736
  H      181.695    -323.318      71.031
  H      180.331    -321.279      70.738
  H      180.956    -318.262      72.423
  H      182.624    -318.015      70.124
  H      180.913    -318.987      68.687
  H      178.932    -317.278      70.276
  H      178.137    -318.370      68.137
  H      178.472    -319.945      68.855
  P      181.132    -317.283      66.797
  C      178.776    -318.020      65.895
  O      180.129    -318.352      66.138
  O      182.440    -318.142      67.116
  O      181.374    -316.053      65.980
  H      182.301    -318.809      67.800
  H      178.379    -318.710      65.156
  H      178.686    -316.997      65.517
  H      178.207    -318.117      66.826
  H      174.189    -318.677      66.963
  H      173.815    -318.909      68.653
  H      175.250    -319.635      67.968

 3  4  5  6  7  8  9  10  11  12  13  24  28  29  30  31  32 0
 6-311+G(2d,p)
 ****
 33  34 0
 6-311+G(2d,p)
 ****
 1  2  14  15  16  17  18  19  20  21  22  23  25  26  27 0
 3-21G
 ****
 35  36  37  38  39  40  41  42  43  44  45 0
 3-21G
 ****


