%nproc=1
%NoSave
%Mem=1900MB
#P OB98/GEN NMR

erre ene a

0 1
  C     -672.327     216.609     256.481
  O     -671.293     216.925     255.547
  P     -670.693     218.411     255.585
  C     -668.519     217.323     254.602
  O     -669.450     218.401     254.574
  C     -667.160     217.778     254.082
  O     -667.221     218.045     252.658
  C     -666.660     219.075     254.713
  O     -666.195     218.861     256.033
  C     -665.587     219.480     253.709
  O     -664.372     218.746     253.950
  C     -666.210     219.038     252.373
  N     -666.762     220.145     251.593
  C     -665.897     220.706     250.652
  O     -664.737     220.330     250.488
  N     -666.409     221.742     249.922
  C     -667.659     222.273     250.051
  O     -668.074     223.198     249.356
  C     -668.506     221.676     251.096
  C     -668.025     220.650     251.808
  O     -670.028     218.445     257.032
  O     -671.724     219.462     255.327
  H     -669.650     217.588     257.301
  H     -663.782     218.936     253.193
  H     -665.808     222.157     249.220
  H     -669.496     222.089     251.244
  H     -668.628     220.192     252.587
  H     -665.458     218.530     251.753
  H     -665.343     220.549     253.764
  H     -667.462     219.823     254.715
  H     -666.438     216.972     254.249
  H     -668.885     216.499     253.976
  H     -668.443     216.948     255.628
  P     -666.978     219.632     257.206
  C     -665.065     218.502     258.591
  O     -666.063     219.497     258.519
  O     -668.196     218.636     257.471
  O     -667.378     221.023     256.845
  H     -667.933     217.705     257.510
  H     -664.344     218.782     259.369
  H     -664.528     218.404     257.643
  H     -665.519     217.543     258.856
  H     -672.632     215.592     256.345
  H     -673.163     217.257     256.320
  H     -671.960     216.741     257.477

 3  4  5  6  7  8  9  10  11  12  13  24  28  29  30  31  32 0
 6-311+G(2d,p)
 ****
 33  34 0
 6-311+G(2d,p)
 ****
 1  2  14  15  16  17  18  19  20  21  22  23  25  26  27 0
 3-21G
 ****
 35  36  37  38  39  40  41  42  43  44  45 0
 3-21G
 ****


