%nproc=1
%NoSave
%Mem=1900MB
#P OB98/GEN NMR

erre ene a

0 1
  C      -60.884    -179.770    -340.304
  O      -62.051    -179.651    -341.125
  P      -63.382    -180.374    -340.582
  C      -63.113    -182.522    -342.023
  O      -63.173    -181.962    -340.713
  C      -63.045    -184.051    -341.988
  O      -61.805    -184.458    -341.348
  C      -64.186    -184.730    -341.223
  O      -64.530    -185.948    -341.898
  C      -63.544    -185.111    -339.902
  O      -64.231    -186.178    -339.255
  C      -62.129    -185.453    -340.367
  N      -60.172    -188.068    -336.502
  C      -61.084    -188.463    -337.468
  N      -61.548    -189.728    -337.371
  N      -61.492    -187.687    -338.436
  C      -60.915    -186.463    -338.426
  C      -59.996    -185.958    -337.530
  C      -59.584    -186.814    -336.438
  O      -58.818    -186.503    -335.522
  N      -59.645    -184.667    -337.851
  C      -60.355    -184.394    -338.925
  N      -61.147    -185.447    -339.311
  O      -64.468    -180.026    -341.704
  O      -63.815    -179.898    -339.231
  H      -63.805    -186.312    -338.385
  H      -65.237    -179.584    -341.296
  H      -59.905    -188.700    -335.763
  H      -60.353    -183.446    -339.451
  H      -62.099    -186.437    -340.858
  H      -63.548    -184.245    -339.227
  H      -61.225    -190.397    -336.691
  H      -65.075    -184.109    -341.096
  H      -62.181    -190.055    -338.095
  H      -63.010    -184.415    -343.022
  H      -62.233    -182.132    -342.544
  H      -63.999    -182.196    -342.578
  P      -65.686    -185.846    -343.014
  C      -67.326    -185.589    -341.007
  O      -66.925    -185.132    -342.286
  O      -66.163    -187.367    -343.187
  O      -65.237    -185.236    -344.303
  H      -66.529    -187.503    -344.084
  H      -66.594    -186.273    -340.562
  H      -68.281    -186.112    -341.099
  H      -67.450    -184.725    -340.350
  H      -60.069    -179.252    -340.765
  H      -60.632    -180.804    -340.190
  H      -61.079    -179.343    -339.343

 3  4  5  6  7  8  9  10  11  12  23  26  30  31  33  0
 6-311+G(2d,p)
 ****
 35  36  37  38 0
 6-311+G(2d,p)
 ****
 1  2  13  14  15  16  17  18  19  20  21  22  24  25  27  28  29 0
 3-21G
 ****
 32  34  39  40  41  42  43  44  45  46  47  48  49 0
 3-21G
 ****


