%nproc=1
%NoSave
%Mem=1900MB
#P OB98/GEN NMR

erre ene a

0 1
  C      259.751    -275.168     203.272
  O      261.112    -275.260     202.890
  H      259.196    -274.666     202.475
  H      259.660    -274.585     204.192
  H      259.333    -276.165     203.420
  P      262.097    -275.986     203.925
  C      264.242    -276.810     202.695
  O      263.583    -275.749     203.365
  C      265.673    -276.402     202.326
  O      265.613    -275.231     201.453
  C      266.543    -276.014     203.532
  O      267.909    -276.306     203.206
  C      266.343    -274.506     203.584
  O      267.303    -273.896     204.417
  C      266.396    -274.198     202.091
  N      267.087    -269.147     202.517
  C      267.838    -270.191     202.921
  N      267.595    -271.509     202.758
  C      266.447    -271.702     202.086
  C      265.580    -270.735     201.606
  C      265.934    -269.395     201.848
  N      265.168    -268.333     201.449
  N      264.497    -271.322     200.969
  C      264.713    -272.619     201.063
  N      265.874    -272.897     201.737
  O      261.833    -277.541     203.660
  O      261.899    -275.624     205.359
  H      268.190    -273.916     204.000
  H      261.175    -277.880     204.292
  H      268.757    -269.937     203.441
  H      264.065    -273.399     200.672
  H      267.416    -274.261     201.695
  H      265.364    -274.255     203.998
  H      266.266    -276.535     204.450
  H      266.134    -277.206     201.739
  H      263.679    -277.056     201.790
  H      264.272    -277.692     203.349
  H      265.485    -267.403     201.676
  H      264.296    -268.505     200.964
  P      268.598    -277.621     203.823
  C      269.200    -278.985     201.676
  O      269.654    -278.196     202.764
  O      267.413    -278.694     203.725
  O      269.084    -277.494     205.233
  H      267.517    -279.366     204.429
  H      270.036    -279.280     201.076
  H      268.518    -278.414     201.081
  H      268.704    -279.856     202.050

 6  7  8  9  10  11  12  13  14  15  25  28  32  33  34  35 0
 6-311+G(2d,p)
 ****
 36  37  40 0
 6-311+G(2d,p)
 ****
 1  2  3  4  5  16  17  18  19  20  21  22  23  24 0
 3-21G
 ****
 26  27  29  30  31  38  39 41  42  43  44  45  46  47  48 0
 3-21G
 ****


