%nproc=1
%NoSave
%Mem=1900MB
#P OB98/GEN NMR

erre ene a

0 1
  C     -210.741     117.936    -709.472
  O     -211.392     116.777    -709.956
  P     -211.482     116.484    -711.526
  C     -214.008     116.901    -711.469
  O     -212.780     117.248    -712.089
  C     -214.850     116.002    -712.373
  O     -216.138     115.772    -711.745
  C     -215.118     116.566    -713.780
  O     -215.155     115.451    -714.675
  C     -216.508     117.160    -713.643
  O     -217.167     117.320    -714.890
  C     -217.148     116.132    -712.717
  N     -222.176     116.990    -713.085
  C     -221.280     116.505    -713.973
  N     -219.954     116.328    -713.806
  C     -219.575     116.713    -712.574
  C     -220.368     117.252    -711.574
  C     -221.744     117.375    -711.863
  N     -222.675     117.833    -710.964
  N     -219.604     117.579    -710.473
  C     -218.370     117.232    -710.801
  N     -218.319     116.650    -712.037
  O     -211.394     115.043    -711.913
  O     -210.266     117.321    -712.150
  H     -217.995     117.812    -714.741
  H     -209.547     116.715    -712.410
  H     -221.683     116.213    -714.942
  H     -217.494     117.383    -710.189
  H     -217.449     115.219    -713.248
  H     -216.445     118.140    -713.161
  H     -214.373     117.300    -714.109
  H     -214.350     115.023    -712.448
  H     -214.561     117.822    -711.270
  H     -223.646     117.753    -711.223
  H     -222.427     117.869    -709.977
  H     -213.816     116.401    -710.517
  P     -214.092     115.346    -715.870
  C     -215.684     116.341    -717.609
  O     -214.464     116.503    -716.913
  O     -213.925     113.984    -716.458
  O     -212.733     115.879    -715.205
  H     -211.969     115.598    -715.752
  H     -215.539     115.645    -718.444
  H     -216.003     117.308    -718.004
  H     -216.470     115.952    -716.949
  H     -210.787     117.951    -708.403
  H     -211.226     118.807    -709.862
  H     -209.718     117.927    -709.785

 3  4  5  6  7  8  9  10  11  12  22  25  29  30  31  32 0
 6-311+G(2d,p)
 ****
 33  36  37 0
 6-311+G(2d,p)
 ****
 1  2  13  14  15  16  17  18  19  20  21  23  24  26 0
 3-21G
 ****
 27  28  34  35  38  39  40  41  42  43  44  45  46  47  48 0
 3-21G
 ****


