%nproc=1
%NoSave
%Mem=1900MB
#P OB98/GEN NMR

erre ene a

0 1
  C       18.487     453.647     139.484
  O       19.820     453.143     139.341
  P       20.369     452.087     140.417
  C       21.738     453.655     141.950
  O       20.570     452.841     141.822
  C       22.002     454.007     143.434
  O       22.326     452.804     144.197
  C       23.165     454.989     143.600
  O       22.931     455.856     144.738
  C       24.322     454.078     143.951
  O       25.377     454.793     144.607
  C       23.615     453.028     144.814
  N       26.215     449.911     147.953
  C       25.527     451.053     148.180
  N       24.829     451.805     147.302
  C       24.901     451.278     146.074
  C       25.575     450.128     145.674
  C       26.252     449.431     146.683
  N       26.993     448.289     146.430
  N       25.408     449.908     144.321
  C       24.713     450.932     143.898
  N       24.357     451.790     144.910
  O       21.529     451.257     139.984
  O       19.082     451.170     140.703
  H       24.972     455.261     145.378
  H       19.368     450.226     140.757
  H       25.528     451.388     149.212
  H       24.451     451.132     142.851
  H       23.433     453.394     145.830
  H       24.738     453.636     143.023
  H       23.370     455.613     142.718
  H       21.077     454.406     143.864
  H       21.618     454.562     141.364
  H       27.549     447.919     147.191
  H       27.137     447.992     145.475
  H       22.587     453.127     141.514
  P       22.912     457.430     144.406
  C       25.305     458.305     145.049
  O       24.414     457.838     144.047
  O       22.254     458.251     145.477
  O       22.124     457.477     143.008
  H       22.475     456.856     142.335
  H       26.310     458.382     144.607
  H       25.331     457.592     145.879
  H       24.973     459.284     145.402
  H       18.279     454.335     138.691
  H       18.394     454.148     140.425
  H       17.792     452.834     139.443

 3  4  5  6  7  8  9  10  11  12  22  25  29  30  31  32 0
 6-311+G(2d,p)
 ****
 33  36  37 0
 6-311+G(2d,p)
 ****
 1  2  13  14  15  16  17  18  19  20  21  23  24  26 0
 3-21G
 ****
 27  28  34  35  38  39  40  41  42  43  44  45  46  47  48 0
 3-21G
 ****


