%nproc=1
%NoSave
%Mem=1900MB
#P OB98/GEN NMR

erre ene a

0 1
  C      -48.412     172.827    -218.882
  O      -47.959     171.486    -218.761
  P      -47.093     170.796    -219.922
  C      -45.538     169.861    -218.095
  O      -45.625     170.618    -219.304
  C      -44.205     170.146    -217.402
  O      -44.188     171.537    -216.990
  C      -43.946     169.348    -216.117
  O      -43.405     168.051    -216.326
  C      -42.898     170.231    -215.447
  O      -41.608     170.007    -216.055
  C      -43.399     171.636    -215.778
  N      -43.432     173.235    -210.911
  C      -42.440     172.745    -211.704
  N      -42.518     172.329    -212.986
  C      -43.763     172.489    -213.458
  C      -44.871     172.972    -212.775
  C      -44.671     173.356    -211.439
  N      -45.674     173.874    -210.649
  N      -45.992     172.963    -213.598
  C      -45.556     172.503    -214.747
  N      -44.218     172.204    -214.716
  O      -47.163     171.489    -221.242
  O      -47.640     169.292    -219.979
  H      -41.374     169.074    -215.879
  H      -47.372     168.869    -220.820
  H      -41.456     172.680    -211.237
  H      -46.167     172.364    -215.627
  H      -42.580     172.340    -215.980
  H      -42.786     170.022    -214.378
  H      -44.840     169.308    -215.483
  H      -43.396     169.993    -218.125
  H      -45.596     168.800    -218.353
  H      -45.409     174.245    -209.751
  H      -46.550     174.118    -211.089
  H      -46.385     170.105    -217.441
  P      -44.216     166.812    -215.711
  C      -44.190     165.160    -217.746
  O      -44.916     166.087    -216.958
  O      -45.127     167.162    -214.576
  O      -43.045     165.798    -215.300
  H      -42.551     165.415    -216.040
  H      -44.885     164.662    -218.427
  H      -43.710     164.396    -217.114
  H      -43.430     165.687    -218.329
  H      -48.968     173.096    -218.008
  H      -49.039     172.915    -219.744
  H      -47.570     173.480    -218.985

 3  4  5  6  7  8  9  10  11  12  22  25  29  30  31  32 0
 6-311+G(2d,p)
 ****
 33  36  37 0
 6-311+G(2d,p)
 ****
 1  2  13  14  15  16  17  18  19  20  21  23  24  26 0
 3-21G
 ****
 27  28  34  35  38  39  40  41  42  43  44  45  46  47  48 0
 3-21G
 ****


