%nproc=1
%NoSave
%Mem=1900MB
#P OB98/GEN NMR

erre ene a

0 1
  C     -604.078     280.014     188.205
  O     -604.957     280.581     187.250
  H     -603.307     280.745     188.449
  H     -603.602     279.126     187.784
  H     -604.608     279.748     189.125
  P     -606.343     279.838     186.939
  C     -605.213     278.473     185.058
  O     -606.262     279.370     185.401
  C     -605.480     277.829     183.690
  O     -606.674     277.002     183.782
  C     -605.702     278.840     182.562
  O     -605.219     278.243     181.342
  C     -607.212     278.941     182.525
  O     -607.678     279.503     181.322
  C     -607.604     277.483     182.789
  N     -608.993     277.346     183.225
  C     -609.968     277.334     182.229
  O     -609.696     277.466     181.029
  N     -611.252     277.212     182.639
  C     -611.676     277.164     183.944
  O     -612.858     277.085     184.263
  C     -610.612     277.220     184.950
  C     -609.339     277.306     184.562
  O     -607.578     280.596     187.295
  O     -606.237     278.449     187.729
  H     -608.658     279.458     181.276
  H     -607.128     278.155     188.000
  H     -611.967     277.192     181.931
  H     -610.911     277.188     185.995
  H     -608.531     277.340     185.286
  H     -607.470     276.880     181.884
  H     -607.571     279.585     183.342
  H     -605.210     279.800     182.737
  H     -604.648     277.153     183.460
  H     -605.169     277.696     185.832
  H     -604.268     279.017     185.037
  P     -603.732     278.498     180.804
  C     -604.429     280.096     178.908
  O     -603.809     278.855     179.237
  O     -602.765     277.402     181.135
  O     -603.279     279.873     181.480
  H     -602.310     279.891     181.587
  H     -604.424     280.227     177.846
  H     -603.890     280.897     179.369
  H     -605.439     280.095     179.262

 6  7  8  9  10  11  12  13  14  15  16  26  31  32  33  34  35 0
 6-311+G(2d,p)
 ****
 36  37 0
 6-311+G(2d,p)
 ****
 1  2  3  4  5  17  18  19  20  21  22  23  24  25 0
 3-21G
 ****
 27  28  29  30  38  39  40  41  42  43  44  45 0
 3-21G
 ****


