%nproc=1
%NoSave
%Mem=1900MB
#P OB98/GEN NMR

erre ene a

0 1
  C     -815.060    -568.641    -890.290
  O     -816.213    -568.805    -889.490
  H     -814.549    -567.721    -889.980
  H     -815.334    -568.555    -891.350
  H     -814.380    -569.486    -890.150
  P     -817.163    -570.050    -889.870
  C     -817.922    -570.869    -892.220
  O     -817.564    -569.768    -891.400
  C     -819.069    -570.477    -893.160
  O     -818.824    -569.166    -893.730
  C     -819.282    -571.405    -894.340
  O     -819.948    -572.610    -894.000
  C     -820.120    -570.516    -895.230
  O     -821.466    -570.447    -894.710
  C     -819.400    -569.154    -895.070
  N     -818.357    -568.947    -896.070
  C     -818.790    -568.528    -897.350
  O     -819.977    -568.360    -897.570
  N     -817.853    -568.338    -898.340
  C     -816.590    -568.527    -898.080
  N     -815.717    -568.336    -899.090
  C     -816.090    -568.964    -896.760
  C     -817.024    -569.138    -895.820
  O     -818.527    -569.721    -889.080
  O     -816.607    -571.408    -889.600
  H     -821.827    -571.360    -894.770
  H     -819.228    -570.353    -889.360
  H     -815.039    -569.117    -896.590
  H     -816.718    -569.457    -894.810
  H     -820.106    -568.324    -895.110
  H     -820.196    -570.874    -896.250
  H     -818.328    -571.615    -894.850
  H     -819.990    -570.394    -892.540
  H     -816.093    -568.104    -900.000
  H     -818.249    -571.694    -891.580
  H     -814.737    -568.606    -899.030
  H     -817.070    -571.183    -892.820
  P     -819.458    -573.953    -894.740
  C     -820.108    -575.172    -896.930
  O     -820.150    -573.966    -896.180
  O     -820.243    -575.103    -893.930
  O     -817.978    -574.172    -894.720
  H     -819.695    -575.916    -893.880
  H     -820.608    -575.028    -897.865
  H     -820.595    -575.951    -896.381
  H     -819.089    -575.445    -897.109

 6  7  8  9  10  11  12  13  14  15  16  26  30  31  32  33  35 0
 6-311+G(2d,p)
 ****
 37  38 0
 6-311+G(2d,p)
 ****
 1  2  3  4  5  17  18  19  20  21  22  23  24  25 0
 3-21G
 ****
 27  28  29  34  36  39  40  41  42  43  44  45  46 0
 3-21G
 ****


