%nproc=1
%NoSave
%Mem=1900MB
#P OB98/GEN NMR

erre ene a

0 1
  C     -763.023    1139.638    -892.150
  O     -762.981    1138.282    -892.540
  P     -763.937    1137.732    -893.730
  C     -762.957    1138.732    -895.920
  O     -762.972    1137.594    -895.060
  C     -761.553    1138.891    -896.490
  O     -760.599    1139.354    -895.530
  C     -760.926    1137.555    -897.010
  O     -761.568    1136.931    -898.110
  C     -759.469    1137.937    -897.160
  O     -759.237    1138.634    -898.400
  C     -759.277    1138.930    -895.950
  N     -758.527    1138.285    -894.860
  C     -757.154    1138.464    -894.920
  O     -756.552    1139.072    -895.810
  N     -756.421    1137.825    -893.910
  C     -756.985    1137.006    -892.940
  O     -756.271    1136.448    -892.100
  C     -758.443    1136.893    -892.950
  C     -759.138    1137.492    -893.880
  O     -765.163    1138.531    -893.940
  O     -764.182    1136.173    -893.320
  H     -759.555    1138.070    -899.120
  H     -763.378    1135.648    -893.250
  H     -755.431    1137.888    -893.940
  H     -758.899    1136.280    -892.180
  H     -760.233    1137.424    -893.930
  H     -758.740    1139.815    -896.260
  H     -758.811    1137.097    -897.160
  H     -760.996    1136.835    -896.170
  H     -761.588    1139.626    -897.340
  H     -763.213    1139.613    -895.370
  H     -763.700    1138.576    -896.700
  P     -761.553    1135.326    -898.330
  C     -763.906    1134.760    -897.310
  O     -763.039    1134.853    -898.500
  O     -760.603    1134.505    -897.480
  O     -761.023    1135.259    -899.880
  H     -760.480    1134.447    -900.000
  H     -764.849    1134.320    -897.610
  H     -764.023    1135.750    -896.900
  H     -763.418    1134.081    -896.600
  H     -762.324    1139.803    -891.356
  H     -764.009    1139.882    -891.814
  H     -762.767    1140.257    -892.984

 3  4  5  6  7  8  9  10  11  12  13  23  28  29  30  31  32 0
 6-311+G(2d,p)
 ****
 33  34 0
 6-311+G(2d,p)
 ****
 1  2  14  15  16  17  18  19  20  21  22  24  25  26  27 0
 3-21G
 ****
 35  36  37  38  39  40  41  42  43  44  45 0
 3-21G
 ****


