%nproc=1
%NoSave
%Mem=1900MB
#P OB98/GEN NMR

erre ene a

0 1
  C     -710.986    -535.367    -858.914
  O     -710.877    -533.962    -859.080
  P     -712.238    -533.140    -859.323
  C     -714.512    -533.651    -860.469
  O     -713.163    -534.053    -860.263
  C     -714.933    -533.944    -861.908
  O     -714.660    -535.326    -862.235
  C     -716.412    -533.761    -862.186
  O     -716.743    -532.381    -862.302
  C     -716.561    -534.551    -863.486
  O     -716.085    -533.775    -864.591
  C     -715.622    -535.744    -863.232
  N     -718.749    -539.589    -864.533
  C     -718.260    -538.547    -865.244
  N     -717.446    -537.555    -864.820
  C     -717.147    -537.698    -863.524
  C     -717.583    -538.701    -862.677
  C     -718.430    -539.669    -863.220
  N     -718.932    -540.742    -862.482
  N     -717.089    -538.523    -861.397
  C     -716.340    -537.439    -861.478
  N     -716.329    -536.920    -862.743
  O     -711.767    -531.959    -860.303
  O     -712.888    -532.622    -858.084
  H     -716.734    -533.042    -864.733
  H     -712.273    -531.135    -860.116
  H     -718.554    -538.500    -866.284
  H     -715.789    -536.994    -860.664
  H     -715.069    -536.040    -864.127
  H     -717.597    -534.843    -863.698
  H     -717.023    -534.218    -861.399
  H     -714.339    -533.315    -862.579
  H     -714.614    -532.575    -860.290
  H     -719.640    -541.308    -862.932
  H     -718.807    -540.719    -861.486
  H     -715.154    -534.184    -859.760
  P     -718.138    -531.908    -861.685
  C     -720.350    -533.201    -861.403
  O     -719.177    -533.038    -862.186
  O     -718.511    -530.660    -862.620
  O     -718.135    -531.641    -860.219
  H     -718.413    -530.881    -863.562
  H     -720.982    -533.955    -861.874
  H     -720.900    -532.252    -861.342
  H     -720.088    -533.548    -860.391
  H     -710.013    -535.785    -858.762
  H     -711.425    -535.797    -859.790
  H     -711.602    -535.579    -858.065

 3  4  5  6  7  8  9  10  11  12  22  25  29  30  31  32 0
 6-311+G(2d,p)
 ****
 33  36  37 0
 6-311+G(2d,p)
 ****
 1  2  13  14  15  16  17  18  19  20  21  23  24  26 0
 3-21G
 ****
 27  28  34  35  38  39  40  41  42  43  44  45  46  47  48 0
 3-21G
 ****


