%nproc=1
%NoSave
%Mem=1900MB
#P OB98/GEN NMR

erre ene a

0 1
  C      298.073    -460.089    -103.387
  O      297.400    -460.045    -104.631
  H      297.408    -459.686    -102.616
  H      298.975    -459.476    -103.428
  H      298.331    -461.120    -103.127
  P      298.136    -460.756    -105.871
  C      299.017    -458.525    -106.943
  O      299.312    -459.757    -106.308
  C      300.293    -457.711    -107.164
  O      300.717    -457.165    -105.885
  C      301.455    -458.527    -107.734
  O      302.207    -457.692    -108.614
  C      302.297    -458.845    -106.503
  O      303.653    -459.128    -106.842
  C      302.085    -457.579    -105.658
  N      302.353    -457.805    -104.244
  C      303.617    -457.441    -103.777
  O      304.457    -456.977    -104.548
  N      303.932    -457.659    -102.455
  C      303.073    -458.250    -101.684
  N      303.448    -458.458    -100.390
  C      301.740    -458.684    -102.139
  C      301.447    -458.426    -103.418
  O      297.045    -460.591    -107.031
  O      298.557    -462.161    -105.612
  H      304.146    -459.322    -106.016
  H      296.650    -459.705    -107.068
  H      301.059    -459.183    -101.461
  H      300.485    -458.708    -103.837
  H      302.740    -456.768    -106.009
  H      301.887    -459.721    -105.987
  H      301.124    -459.420    -108.265
  H      300.055    -456.858    -107.811
  H      304.381    -458.163    -100.126
  H      298.316    -457.944    -106.338
  H      302.885    -458.952     -99.714
  H      298.538    -458.747    -107.901
  P      301.675    -457.435    -110.103
  C      303.786    -458.082    -111.448
  O      302.443    -458.407    -111.118
  O      301.600    -456.004    -110.524
  O      300.199    -458.074    -110.056
  H      299.600    -457.477    -110.555
  H      304.172    -458.811    -112.130
  H      304.380    -458.076    -110.558
  H      303.817    -457.115    -111.905

 6  7  8  9  10  11  12  13  14  15  16  26  30  31  32  33  35 0
 6-311+G(2d,p)
 ****
 37  38 0
 6-311+G(2d,p)
 ****
 1  2  3  4  5  17  18  19  20  21  22  23  24  25 0
 3-21G
 ****
 27  28  29  34  36  39  40  41  42  43  44  45  46 0
 3-21G
 ****


