%nproc=1
%NoSave
%Mem=1900MB
#P OB98/GEN NMR

erre ene a

0 1
  C       49.489    -119.702    -307.842
  O       49.515    -120.030    -306.469
  H       50.497    -119.808    -308.248
  H       49.168    -118.666    -307.961
  H       48.814    -120.366    -308.392
  P       48.109    -120.332    -305.759
  C       47.729    -122.875    -306.118
  O       48.173    -121.852    -305.240
  C       47.120    -124.034    -305.325
  O       46.461    -124.941    -306.260
  C       48.145    -124.851    -304.521
  O       47.544    -125.262    -303.287
  C       48.343    -126.085    -305.383
  O       48.815    -127.200    -304.637
  C       46.934    -126.263    -305.947
  N       46.608    -131.076    -307.341
  C       46.382    -130.480    -306.115
  N       46.077    -131.293    -305.083
  N       46.450    -129.186    -305.920
  C       46.740    -128.484    -307.042
  C       46.994    -128.958    -308.308
  C       46.931    -130.390    -308.509
  O       47.140    -130.979    -309.566
  N       47.314    -127.931    -309.160
  C       47.279    -126.844    -308.402
  N       46.937    -127.133    -307.108
  O       47.098    -120.400    -307.000
  O       47.673    -119.327    -304.745
  H       48.116    -127.457    -303.999
  H       46.675    -119.532    -307.130
  H       46.558    -132.072    -307.437
  H       47.510    -125.841    -308.734
  H       46.245    -126.711    -305.214
  H       49.062    -125.871    -306.184
  H       45.977    -132.293    -305.163
  H       49.078    -124.317    -304.317
  H       45.873    -130.865    -304.189
  H       46.338    -123.634    -304.666
  H       48.581    -123.247    -306.696
  H       46.989    -122.459    -306.812
  P       47.809    -124.364    -301.980
  C       45.665    -122.905    -301.813
  O       46.401    -124.008    -301.305
  O       48.288    -122.967    -302.600
  O       48.837    -124.930    -301.059
  H       48.951    -122.555    -302.017
  H       44.755    -122.799    -301.260
  H       45.438    -123.073    -302.845
  H       46.247    -122.013    -301.716

 6  7  8  9  10  11  12  13  14  15  26  29  33  34 0
 6-311+G(2d,p)
 ****
 36  38  39  40  41 0
 6-311+G(2d,p)
 ****
 1  2  3  4  5  16  17  18  19  20  21  22  23  24  25 0
 3-21G
 ****
 27  28  30  31  32  35  37  42  43  44  45  46  47 0
 3-21G
 ****
 48  49 0
 3-21G
 ****


