%nproc=1
%NoSave
%Mem=1900MB
#P OB98/GEN NMR

erre ene a

0 1
  C      536.079    -130.349    -240.312
  O      534.892    -129.935    -239.673
  H      535.848    -130.599    -241.350
  H      536.478    -131.237    -239.816
  H      536.831    -129.556    -240.304
  P      534.994    -129.206    -238.251
  C      534.398    -126.901    -239.246
  O      535.355    -127.671    -238.531
  C      535.016    -125.584    -239.733
  O      536.176    -125.880    -240.547
  C      534.039    -124.798    -240.618
  O      534.274    -123.397    -240.562
  C      534.373    -125.301    -242.012
  O      533.986    -124.393    -243.043
  C      535.883    -125.511    -241.907
  N      539.792    -127.103    -244.764
  C      539.610    -125.888    -244.132
  N      540.605    -124.981    -244.278
  N      538.543    -125.586    -243.442
  C      537.601    -126.557    -243.438
  C      537.657    -127.793    -244.046
  C      538.857    -128.133    -244.781
  O      539.058    -129.183    -245.378
  N      536.505    -128.506    -243.828
  C      535.755    -127.707    -243.096
  N      536.387    -126.521    -242.813
  O      536.359    -129.774    -237.632
  O      533.836    -129.430    -237.326
  H      534.431    -124.680    -243.862
  H      536.353    -129.685    -236.662
  H      540.644    -127.299    -245.261
  H      534.760    -127.943    -242.739
  H      536.417    -124.577    -242.123
  H      533.825    -126.232    -242.181
  H      541.338    -125.106    -244.958
  H      532.999    -124.995    -240.370
  H      540.357    -124.005    -244.097
  H      535.368    -124.994    -238.878
  H      533.572    -126.705    -238.559
  H      533.999    -127.472    -240.083
  P      533.561    -122.547    -239.408
  C      535.797    -122.106    -238.061
  O      534.461    -122.556    -238.088
  O      532.290    -123.427    -239.014
  O      533.173    -121.157    -239.812
  H      531.466    -122.960    -239.231
  H      536.188    -122.210    -237.071
  H      535.833    -121.077    -238.353
  H      536.384    -122.690    -238.739

 6  7  8  9  10  11  12  13  14  15  26  29  33  34 0
 6-311+G(2d,p)
 ****
 36  38  39  40  41 0
 6-311+G(2d,p)
 ****
 1  2  3  4  5  16  17  18  19  20  21  22  23  24  25 0
 3-21G
 ****
 27  28  30  31  32  35  37  42  43  44  45  46  47 0
 3-21G
 ****
 48  49 0
 3-21G
 ****


