%nproc=1
%NoSave
%Mem=1900MB
#P OB98/GEN NMR

erre ene a

0 1
  C     -122.345    -230.834    -229.411
  O     -121.680    -229.586    -229.368
  H     -121.810    -231.494    -230.096
  H     -123.369    -230.700    -229.771
  H     -122.358    -231.290    -228.416
  P     -122.293    -228.482    -228.378
  C     -122.045    -228.985    -225.831
  O     -121.419    -228.564    -227.034
  C     -121.231    -230.108    -225.176
  O     -121.375    -231.318    -225.980
  C     -119.725    -229.805    -225.087
  O     -119.194    -230.478    -223.929
  C     -119.199    -230.481    -226.341
  O     -117.802    -230.651    -226.262
  C     -120.042    -231.751    -226.325
  N     -117.141    -233.194    -230.264
  C     -116.840    -232.581    -229.099
  N     -117.671    -232.237    -228.091
  C     -118.931    -232.617    -228.372
  C     -119.390    -233.246    -229.516
  C     -118.433    -233.532    -230.501
  N     -118.735    -234.134    -231.702
  N     -120.759    -233.447    -229.443
  C     -121.113    -232.955    -228.275
  N     -120.042    -232.445    -227.593
  O     -123.701    -229.114    -227.953
  O     -122.441    -227.114    -228.950
  H     -117.572    -231.399    -225.673
  H     -124.403    -228.791    -228.551
  H     -115.792    -232.331    -228.953
  H     -122.118    -232.930    -227.876
  H     -119.710    -232.463    -225.558
  H     -119.407    -229.879    -227.230
  H     -119.500    -228.738    -225.026
  H     -121.653    -230.333    -224.189
  H     -123.051    -229.343    -226.067
  H     -122.114    -228.140    -225.142
  H     -117.991    -234.278    -232.364
  H     -119.696    -234.363    -231.908
  P     -119.025    -229.657    -222.558
  C     -120.673    -230.646    -220.794
  O     -119.347    -230.594    -221.297
  O     -120.304    -228.685    -222.594
  O     -117.772    -228.850    -222.444
  H     -120.033    -227.777    -222.354
  H     -120.712    -231.314    -219.959
  H     -121.332    -230.996    -221.561
  H     -120.975    -229.668    -220.483

 6  7  8  9  10  11  12  13  14  15  25  28  32  33  34  35 0
 6-311+G(2d,p)
 ****
 36  37  40 0
 6-311+G(2d,p)
 ****
 1  2  3  4  5  16  17  18  19  20  21  22  23  24 0
 3-21G
 ****
 26  27  29  30  31  38  39 41  42  43  44  45  46  47  48 0
 3-21G
 ****


