%nproc=1
%NoSave
%Mem=1900MB
#P OB98/GEN NMR

erre ene a

0 1
  C      206.689      84.101     113.892
  O      206.175      85.062     114.798
  P      207.122      85.758     115.880
  C      207.977      87.712     114.350
  O      208.265      86.559     115.109
  C      209.226      88.600     114.300
  O      209.295      89.427     115.480
  C      210.505      87.767     114.233
  O      210.921      87.600     112.888
  C      211.473      88.579     115.071
  O      212.030      89.656     114.294
  C      210.540      89.139     116.171
  N      210.232      88.276     117.327
  C      211.186      88.093     118.324
  O      212.286      88.638     118.323
  N      210.837      87.227     119.328
  C      209.640      86.583     119.447
  O      209.431      85.640     120.201
  C      208.591      87.025     118.523
  C      208.934      87.818     117.509
  O      207.906      84.521     116.524
  O      206.421      86.576     116.915
  H      211.290      90.228     114.024
  H      207.498      84.256     117.369
  H      211.577      86.982     119.980
  H      207.588      86.647     118.667
  H      208.181      88.129     116.789
  H      210.927      90.085     116.568
  H      212.316      87.973     115.398
  H      210.350      86.796     114.719
  H      209.156      89.262     113.428
  H      207.138      88.256     114.798
  H      207.674      87.429     113.337
  P      212.105      86.579     112.548
  C      210.268      85.024     111.667
  O      211.412      85.134     112.490
  O      213.311      86.676     113.423
  O      212.450      86.912     111.020
  H      213.226      87.509     110.977
  H      210.004      83.968     111.572
  H      210.470      85.432     110.672
  H      209.432      85.559     112.125
  H      205.903      83.756     113.254
  H      207.092      83.275     114.439
  H      207.460      84.547     113.299

 3  4  5  6  7  8  9  10  11  12  13  23  28  29  30  31  32 0
 6-311+G(2d,p)
 ****
 33  34 0
 6-311+G(2d,p)
 ****
 1  2  14  15  16  17  18  19  20  21  22  24  25  26  27 0
 3-21G
 ****
 35  36  37  38  39  40  41  42  43  44  45 0
 3-21G
 ****


