%nproc=1
%NoSave
%Mem=1900MB
#P OB98/GEN NMR

erre ene a

0 1
  C      357.988     -44.511     166.148
  O      358.153     -43.099     165.995
  P      357.935     -42.480     164.533
  C      359.206     -42.437     162.268
  O      359.242     -42.778     163.648
  C      360.082     -43.386     161.434
  O      361.484     -43.244     161.794
  C      359.724     -44.866     161.615
  O      360.024     -45.554     160.396
  C      360.710     -45.314     162.679
  O      360.853     -46.734     162.699
  C      361.949     -44.533     162.251
  N      365.846     -41.782     163.897
  C      365.121     -41.688     162.725
  N      365.467     -40.691     161.880
  N      364.144     -42.501     162.408
  C      363.890     -43.424     163.366
  C      364.538     -43.623     164.561
  C      365.632     -42.731     164.887
  O      366.316     -42.781     165.906
  N      364.002     -44.680     165.251
  C      363.037     -45.125     164.469
  N      362.906     -44.373     163.331
  O      358.015     -40.901     164.794
  O      356.633     -42.858     163.903
  H      361.290     -46.992     161.856
  H      357.127     -40.507     164.708
  H      366.591     -41.136     164.085
  H      362.410     -45.980     164.673
  H      362.482     -45.016     161.424
  H      360.363     -44.989     163.670
  H      366.170     -40.001     162.088
  H      358.685     -45.056     161.893
  H      364.921     -40.577     161.033
  H      359.985     -43.109     160.377
  H      359.546     -41.410     162.125
  H      358.167     -42.452     161.926
  P      359.006     -46.703     159.943
  C      358.786     -49.246     160.438
  O      359.517     -48.052     160.643
  O      359.354     -46.932     158.399
  O      357.565     -46.379     160.151
  H      358.582     -47.295     157.925
  H      359.322     -49.874     159.719
  H      357.774     -49.048     160.065
  H      358.709     -49.778     161.386
  H      358.163     -44.782     167.168
  H      358.686     -45.022     165.519
  H      356.992     -44.786     165.871

 3  4  5  6  7  8  9  10  11  12  23  26  30  31 0
 6-311+G(2d,p)
 ****
 33  35  36  37  38 0
 6-311+G(2d,p)
 ****
 1  2  13  14  15  16  17  18  19  20  21  22  24  25 0
 3-21G
 ****
 27  28  29  32  34  39  40  41  42  43  44  45  46  47  48  49 0
 3-21G
 ****


