%nproc=1
%NoSave
%Mem=1900MB
#P OB98/GEN NMR

erre ene a

0 1
  C      877.378    1415.569    1422.102
  O      877.333    1416.970    1422.067
  P      878.766    1417.763    1422.116
  C      879.082    1418.154    1419.562
  O      878.740    1418.724    1420.832
  C      878.283    1418.832    1418.430
  O      876.908    1418.381    1418.480
  C      878.230    1420.350    1418.484
  O      879.398    1420.926    1417.952
  C      877.018    1420.616    1417.620
  O      877.368    1420.507    1416.216
  C      876.063    1419.463    1418.016
  N      872.257    1422.708    1419.120
  C      873.110    1422.640    1418.092
  N      874.101    1421.750    1417.832
  C      874.245    1420.896    1418.885
  C      873.443    1420.845    1420.049
  C      872.457    1421.820    1420.138
  N      871.550    1421.884    1421.227
  N      873.872    1419.864    1420.891
  C      874.843    1419.279    1420.238
  N      875.112    1419.849    1419.020
  O      879.817    1416.624    1421.740
  O      879.054    1418.409    1423.408
  H      878.102    1421.133    1416.069
  H      880.699    1416.870    1422.099
  H      872.984    1423.368    1417.314
  H      875.385    1418.415    1420.581
  H      875.526    1419.075    1417.147
  H      876.609    1421.610    1417.783
  H      878.043    1420.701    1419.504
  H      878.719    1418.462    1417.488
  H      878.880    1417.069    1419.568
  H      870.777    1422.474    1421.109
  H      871.538    1421.094    1421.889
  H      880.183    1418.302    1419.391
  P      879.965    1422.248    1418.692
  C      881.615    1420.882    1420.175
  O      881.455    1421.861    1419.140
  O      879.130    1422.275    1420.082
  O      879.794    1423.494    1417.888
  H      879.073    1423.177    1420.394
  H      882.665    1420.523    1420.132
  H      880.950    1420.037    1420.023
  H      881.415    1421.341    1421.138
  H      876.382    1415.179    1422.064
  H      877.852    1415.250    1423.007
  H      877.934    1415.209    1421.262

 3  4  5  6  7  8  9  10  11  12  22  25  29  30  31  32 0
 6-311+G(2d,p)
 ****
 33  36  37 0
 6-311+G(2d,p)
 ****
 1  2  13  14  15  16  17  18  19  20  21  23  24  26 0
 3-21G
 ****
 27  28  34  35  38  39  40  41  42  43  44  45  46  47  48 0
 3-21G
 ****


