%nproc=1
%NoSave
%Mem=1900MB
#P OB98/GEN NMR

erre ene a

0 1
  C      386.073     -30.872     172.029
  O      386.528     -31.597     170.906
  H      385.846     -31.575     172.836
  H      385.162     -30.320     171.777
  H      386.845     -30.177     172.369
  P      386.855     -30.740     169.589
  C      384.336     -30.713     168.977
  O      385.659     -31.023     168.557
  C      383.362     -31.788     168.501
  O      382.061     -31.600     169.103
  C      383.145     -31.819     166.992
  O      384.166     -32.559     166.347
  C      381.784     -32.492     166.903
  O      381.905     -33.925     167.045
  C      381.046     -31.890     168.105
  N      377.692     -28.607     169.971
  C      378.199     -29.768     170.516
  N      377.722     -30.132     171.727
  N      379.088     -30.523     169.922
  C      379.431     -30.072     168.692
  C      378.999     -28.939     168.044
  C      378.058     -28.085     168.736
  O      377.636     -27.002     168.343
  N      379.592     -28.815     166.812
  C      380.355     -29.887     166.706
  N      380.285     -30.685     167.819
  O      388.095     -31.518     168.933
  O      387.185     -29.305     169.823
  H      382.448     -34.122     167.829
  H      388.710     -30.863     168.555
  H      377.034     -28.050     170.488
  H      380.979     -30.125     165.855
  H      380.345     -32.599     168.554
  H      381.313     -32.319     165.933
  H      376.851     -29.766     172.091
  H      383.075     -30.803     166.581
  H      378.040     -31.021     172.091
  H      383.741     -32.757     168.855
  H      384.048     -29.746     168.553
  H      384.311     -30.648     170.069
  P      385.186     -31.777     165.393
  C      383.568     -31.130     163.471
  O      384.667     -31.930     163.882
  O      386.496     -32.696     165.436
  O      385.497     -30.383     165.825
  H      387.180     -32.278     165.990
  H      383.337     -31.340     162.447
  H      383.821     -30.096     163.575
  H      382.717     -31.352     164.081

 6  7  8  9  10  11  12  13  14  15  26  29  33  34 0
 6-311+G(2d,p)
 ****
 36  38  39  40  41 0
 6-311+G(2d,p)
 ****
 1  2  3  4  5  16  17  18  19  20  21  22  23  24  25 0
 3-21G
 ****
 27  28  30  31  32  35  37  42  43  44  45  46  47 0
 3-21G
 ****
 48  49 0
 3-21G
 ****


