%nproc=1
%NoSave
%Mem=1900MB
#P OB98/GEN NMR

erre ene a

0 1
  C       66.077      43.388     -20.025
  O       67.295      43.655     -19.358
  H       65.344      43.046     -19.289
  H       66.212      42.604     -20.774
  H       65.697      44.296     -20.500
  P       68.562      44.098     -20.231
  C       69.607      41.742     -20.013
  O       69.769      43.139     -19.795
  C       70.863      40.983     -19.592
  O       70.626      39.562     -19.628
  C       72.069      41.226     -20.492
  O       72.631      42.497     -20.240
  C       72.940      40.038     -20.117
  O       73.613      40.267     -18.870
  C       71.878      38.920     -19.968
  N       71.730      38.095     -21.162
  C       72.333      36.833     -21.115
  O       72.957      36.479     -20.116
  N       72.226      36.016     -22.215
  C       71.544      36.401     -23.246
  N       71.472      35.544     -24.299
  C       70.864      37.709     -23.321
  C       71.007      38.501     -22.261
  O       68.896      45.558     -20.218
  O       68.210      43.587     -21.707
  H       72.912      40.445     -18.212
  H       67.790      44.300     -22.224
  H       70.297      37.986     -24.198
  H       70.539      39.480     -22.235
  H       72.133      38.261     -19.128
  H       73.708      39.836     -20.863
  H       71.782      41.124     -21.545
  H       71.088      41.253     -18.552
  H       71.938      34.649     -24.192
  H       69.425      41.603     -21.084
  H       70.843      35.667     -25.078
  H       68.737      41.364     -19.465
  P       72.687      43.630     -21.372
  C       75.155      43.098     -21.856
  O       74.223      44.090     -21.454
  O       71.707      44.741     -21.207
  O       72.500      42.812     -22.734
  H       71.549      42.567     -22.861
  H       76.139      43.519     -21.873
  H       74.901      42.745     -22.834
  H       75.128      42.282     -21.164

 6  7  8  9  10  11  12  13  14  15  16  26  30  31  32  33  35 0
 6-311+G(2d,p)
 ****
 37  38 0
 6-311+G(2d,p)
 ****
 1  2  3  4  5  17  18  19  20  21  22  23  24  25 0
 3-21G
 ****
 27  28  29  34  36  39  40  41  42  43  44  45  46 0
 3-21G
 ****


