%nproc=1
%NoSave
%Mem=1900MB
#P OB98/GEN NMR

erre ene a

0 1
  C     -501.966    -243.789    -277.351
  O     -501.148    -244.128    -278.459
  P     -501.567    -243.556    -279.898
  C     -499.025    -243.626    -280.584
  O     -500.370    -243.955    -280.891
  C     -498.097    -244.109    -281.700
  O     -498.588    -243.656    -282.978
  C     -496.667    -243.587    -281.603
  O     -495.917    -244.278    -280.620
  C     -496.184    -243.793    -283.034
  O     -495.802    -245.166    -283.239
  C     -497.452    -243.467    -283.850
  N     -497.441    -242.122    -284.420
  C     -497.459    -242.044    -285.810
  O     -497.484    -243.035    -286.539
  N     -497.427    -240.778    -286.336
  C     -497.317    -239.618    -285.630
  O     -497.251    -238.514    -286.154
  C     -497.265    -239.766    -284.167
  C     -497.329    -240.992    -283.639
  O     -501.390    -241.985    -279.655
  O     -502.931    -243.982    -280.325
  H     -500.727    -241.800    -278.967
  H     -495.480    -245.228    -284.160
  H     -497.464    -240.696    -287.341
  H     -497.169    -238.865    -283.574
  H     -497.285    -241.118    -282.563
  H     -497.573    -244.188    -284.667
  H     -495.314    -243.173    -283.280
  H     -496.679    -242.517    -281.373
  H     -498.105    -245.208    -281.701
  H     -498.747    -244.107    -279.640
  H     -498.945    -242.542    -280.458
  P     -495.330    -243.394    -279.411
  C     -495.555    -245.361    -277.706
  O     -494.718    -244.432    -278.354
  O     -496.677    -242.874    -278.721
  O     -494.404    -242.310    -279.856
  H     -497.359    -243.564    -278.656
  H     -494.937    -246.181    -277.323
  H     -496.301    -245.775    -278.390
  H     -496.058    -244.879    -276.864
  H     -501.569    -244.237    -276.464
  H     -502.960    -244.149    -277.518
  H     -501.987    -242.725    -277.235

 3  4  5  6  7  8  9  10  11  12  13  24  28  29  30  31  32 0
 6-311+G(2d,p)
 ****
 33  34 0
 6-311+G(2d,p)
 ****
 1  2  14  15  16  17  18  19  20  21  22  23  25  26  27 0
 3-21G
 ****
 35  36  37  38  39  40  41  42  43  44  45 0
 3-21G
 ****


