%nproc=1
%NoSave
%Mem=1900MB
#P OB98/GEN NMR

erre ene a

0 1
  C      372.634    -699.459     217.729
  O      371.816    -698.700     216.863
  H      372.179    -699.460     218.726
  H      373.630    -699.015     217.797
  H      372.710    -700.495     217.388
  P      372.154    -698.694     215.293
  C      369.733    -698.639     214.388
  O      370.948    -697.920     214.568
  C      368.521    -697.697     214.487
  O      368.397    -697.261     215.881
  C      368.642    -696.427     213.620
  O      367.305    -696.044     213.262
  C      369.233    -695.448     214.632
  O      369.195    -694.113     214.176
  C      368.399    -695.818     215.860
  N      368.888    -695.287     217.126
  C      368.574    -693.969     217.449
  O      367.903    -693.214     216.726
  N      369.061    -693.513     218.639
  C      369.798    -694.231     219.539
  O      370.184    -693.769     220.611
  C      370.114    -695.604     219.141
  C      369.644    -696.069     217.984
  O      372.505    -700.013     214.703
  O      373.359    -697.645     215.174
  H      374.209    -698.130     215.082
  H      369.723    -694.050     213.350
  H      368.834    -692.560     218.893
  H      370.704    -696.201     219.826
  H      369.837    -697.092     217.668
  H      367.364    -695.498     215.720
  H      370.291    -695.678     214.786
  H      369.238    -696.569     212.722
  H      367.620    -698.257     214.247
  H      369.668    -699.411     215.161
  H      369.747    -699.122     213.402
  P      366.822    -695.855     211.740
  C      366.653    -698.250     210.763
  O      365.947    -697.132     211.324
  O      367.928    -695.538     210.787
  O      365.751    -694.656     211.792
  H      365.721    -694.219     210.920
  H      365.959    -699.030     210.530
  H      367.370    -698.610     211.471
  H      367.156    -697.942     209.870

 6  7  8  9  10  11  12  13  14  15  16  27  31  32  33  34  35 0
 6-311+G(2d,p)
 ****
 36  37 0
 6-311+G(2d,p)
 ****
 1  2  3  4  5  17  18  19  20  21  22  23  24  25 0
 3-21G
 ****
 26  28  29  30  38  39  40  41  42  43  44  45 0
 3-21G
 ****


