%nproc=1
%NoSave
%Mem=1900MB
#P OB98/GEN NMR

erre ene a

0 1
  C       75.620     -41.304     115.901
  O       76.236     -42.568     116.055
  H       75.415     -41.142     114.838
  H       76.292     -40.516     116.254
  H       74.678     -41.268     116.454
  P       76.469     -43.081     117.554
  C       78.963     -43.109     118.375
  O       77.790     -42.351     118.108
  C       79.695     -43.413     117.070
  O       79.717     -42.261     116.202
  C       81.165     -43.755     117.252
  O       81.363     -45.023     117.834
  C       81.651     -43.653     115.814
  O       81.308     -44.829     115.066
  C       80.849     -42.428     115.306
  N       81.660     -41.222     115.230
  C       82.463     -41.099     114.087
  O       82.446     -41.972     113.219
  N       83.284     -40.003     113.976
  C       83.285     -39.098     114.904
  N       84.126     -38.043     114.739
  C       82.436     -39.176     116.111
  C       81.662     -40.257     116.210
  O       76.961     -44.586     117.336
  O       75.293     -42.940     118.466
  H       81.621     -44.673     114.153
  H       77.715     -44.666     116.729
  H       82.464     -38.394     116.856
  H       81.010     -40.391     117.063
  H       80.437     -42.624     114.309
  H       82.736     -43.544     115.754
  H       81.667     -42.971     117.833
  H       79.154     -44.219     116.555
  H       84.709     -38.035     113.909
  H       78.719     -44.035     118.904
  H       84.238     -37.297     115.409
  H       79.601     -42.511     119.034
  P       82.705     -45.348     118.649
  C       84.086     -47.004     117.246
  O       83.840     -45.633     117.550
  O       82.574     -46.402     119.696
  O       83.141     -43.915     119.220
  H       83.313     -43.240     118.540
  H       84.856     -47.073     116.506
  H       83.190     -47.452     116.870
  H       84.396     -47.516     118.133

 6  7  8  9  10  11  12  13  14  15  16  26  30  31  32  33  35 0
 6-311+G(2d,p)
 ****
 37  38 0
 6-311+G(2d,p)
 ****
 1  2  3  4  5  17  18  19  20  21  22  23  24  25 0
 3-21G
 ****
 27  28  29  34  36  39  40  41  42  43  44  45  46 0
 3-21G
 ****


