%nproc=1
%NoSave
%Mem=1900MB
#P OB98/GEN NMR

erre ene a

0 1
  C     -899.184    1013.474      79.793
  O     -898.664    1012.427      78.993
  P     -898.084    1011.117      79.742
  C     -895.814    1011.437      78.414
  O     -896.484    1011.284      79.672
  C     -894.294    1011.587      78.616
  O     -894.054    1012.790      79.383
  C     -893.674    1010.463      79.434
  O     -893.474    1009.283      78.652
  C     -892.374    1011.145      79.903
  O     -891.394    1011.110      78.842
  C     -892.854    1012.573      80.150
  N     -893.084    1012.853      81.570
  C     -891.964    1012.800      82.388
  O     -890.814    1012.557      81.994
  N     -892.204    1013.073      83.739
  C     -893.414    1013.271      84.309
  O     -893.584    1013.439      85.518
  C     -894.574    1013.277      83.408
  C     -894.354    1013.081      82.103
  O     -898.424    1009.984      78.683
  O     -898.644    1010.932      81.111
  H     -898.484    1010.337      77.777
  H     -890.534    1011.392      79.271
  H     -891.394    1013.038      84.363
  H     -895.564    1013.449      83.808
  H     -895.194    1013.078      81.398
  H     -892.104    1013.311      79.792
  H     -891.924    1010.652      80.770
  H     -894.274    1010.223      80.305
  H     -893.824    1011.675      77.645
  H     -896.194    1012.313      77.902
  H     -896.034    1010.551      77.793
  P     -893.484    1007.894      79.443
  C     -891.324    1007.046      78.183
  O     -891.954    1007.367      79.408
  O     -894.234    1006.959      78.402
  O     -894.104    1007.980      80.801
  H     -893.974    1007.096      77.472
  H     -890.254    1007.091      78.311
  H     -891.584    1007.801      77.418
  H     -891.644    1006.068      77.848
  H     -899.528    1014.267      79.163
  H     -898.417    1013.841      80.442
  H     -900.000    1013.104      80.378

 3  4  5  6  7  8  9  10  11  12  13  24  28  29  30  31  32 0
 6-311+G(2d,p)
 ****
 33  34 0
 6-311+G(2d,p)
 ****
 1  2  14  15  16  17  18  19  20  21  22  23  25  26  27 0
 3-21G
 ****
 35  36  37  38  39  40  41  42  43  44  45 0
 3-21G
 ****


