%nproc=1
%NoSave
%Mem=1900MB
#P OB98/GEN NMR

erre ene a

0 1
  C     1013.818    1722.559    -890.130
  O     1014.477    1723.141    -891.210
  P     1015.718    1722.359    -891.860
  C     1015.884    1723.703    -894.100
  O     1016.462    1723.406    -892.840
  C     1016.548    1724.916    -894.710
  O     1017.972    1724.702    -894.850
  C     1016.040    1725.267    -896.080
  O     1014.769    1725.922    -896.030
  C     1017.150    1726.154    -896.630
  O     1016.971    1727.525    -896.220
  C     1018.398    1725.550    -895.930
  N     1019.263    1724.823    -896.860
  C     1020.256    1725.597    -897.490
  O     1020.361    1726.792    -897.270
  N     1021.068    1724.978    -898.400
  C     1020.906    1723.693    -898.660
  N     1021.772    1723.142    -899.560
  C     1019.875    1722.880    -898.030
  C     1019.097    1723.498    -897.160
  O     1015.012    1721.343    -892.900
  O     1016.601    1721.645    -890.860
  H     1016.978    1727.528    -895.260
  H     1015.542    1720.550    -893.030
  H     1019.765    1721.806    -898.290
  H     1018.287    1722.948    -896.650
  H     1018.994    1726.357    -895.460
  H     1017.213    1726.147    -897.710
  H     1015.958    1724.358    -896.720
  H     1016.402    1725.765    -894.020
  H     1022.463    1723.736    -900.000
  H     1014.790    1723.913    -893.960
  H     1021.753    1722.164    -899.800
  H     1015.991    1722.817    -894.740
  P     1013.646    1725.462    -897.050
  C     1012.179    1724.929    -895.000
  O     1012.263    1725.621    -896.240
  O     1013.822    1723.871    -897.070
  O     1013.647    1726.045    -898.440
  H     1013.233    1723.463    -897.740
  H     1011.273    1725.253    -894.480
  H     1013.040    1725.169    -894.380
  H     1012.083    1723.870    -895.170
  H     1013.020    1723.198    -889.813
  H     1014.508    1722.422    -889.323
  H     1013.420    1721.610    -890.424

 3  4  5  6  7  8  9  10  11  12  13  21  23  27  28  29  30  32 0
 6-311+G(2d,p)
 ****
 34  35 0
 6-311+G(2d,p)
 ****
 1  2  14  15  16  17  18  19  20  22  24  25  26 0
 3-21G
 ****
 31  33  36  37  38  39  40  41  42  43  44  45  46 0
 3-21G
 ****


