%nproc=1
%NoSave
%Mem=1900MB
#P OB98/GEN NMR

erre ene a

0 1
  C     1525.776     793.669     530.863
  O     1526.908     794.507     531.126
  P     1528.333     793.974     530.576
  C     1528.142     795.818     528.720
  O     1528.400     794.462     529.043
  C     1529.391     796.453     528.107
  O     1530.531     796.276     528.984
  C     1529.793     795.851     526.766
  O     1528.926     796.291     525.727
  C     1531.245     796.348     526.668
  O     1531.264     797.715     526.201
  C     1531.705     796.293     528.133
  N     1532.559     795.135     528.396
  C     1533.908     795.385     528.620
  O     1534.379     796.539     528.592
  N     1534.683     794.323     528.876
  C     1534.292     793.001     528.913
  O     1535.040     792.088     529.165
  C     1532.863     792.781     528.634
  C     1532.074     793.840     528.391
  O     1528.085     792.406     530.486
  O     1529.482     794.380     531.438
  H     1527.169     792.183     530.239
  H     1530.676     797.745     525.422
  H     1535.676     794.502     529.087
  H     1532.510     791.763     528.597
  H     1531.030     793.683     528.145
  H     1532.258     797.180     528.399
  H     1531.833     795.768     525.973
  H     1529.786     794.766     526.842
  H     1529.211     797.535     528.006
  H     1527.845     796.372     529.617
  H     1527.285     795.858     528.027
  P     1528.537     795.221     524.605
  C     1525.984     795.812     524.564
  O     1526.990     794.868     524.861
  O     1529.307     793.912     525.127
  O     1528.864     795.646     523.212
  H     1529.236     793.800     526.099
  H     1525.023     795.290     524.481
  H     1526.183     796.326     523.621
  H     1525.897     796.549     525.378
  H     1524.896     794.120     531.271
  H     1525.928     792.712     531.316
  H     1525.659     793.549     529.806

 3  4  5  6  7  8  9  10  11  12  13  24  28  29  30  31  32 0
 6-311+G(2d,p)
 ****
 33  34 0
 6-311+G(2d,p)
 ****
 1  2  14  15  16  17  18  19  20  21  22  23  25  26  27 0
 3-21G
 ****
 35  36  37  38  39  40  41  42  43  44  45 0
 3-21G
 ****


