%nproc=1
%NoSave
%Mem=1900MB
#P OB98/GEN NMR

erre ene a

0 1
  C       -4.097      98.906     468.083
  O       -3.962      97.928     467.071
  H       -5.066      99.402     467.986
  H       -4.052      98.413     469.057
  H       -3.292      99.643     468.023
  P       -3.699      98.450     465.578
  C       -5.928      97.445     464.704
  O       -4.511      97.461     464.603
  C       -6.556      97.131     463.347
  O       -6.242      98.218     462.430
  C       -6.065      95.821     462.709
  O       -7.174      95.188     462.065
  C       -5.083      96.295     461.655
  O       -4.933      95.366     460.586
  C       -5.713      97.618     461.232
  N       -2.464      97.938     457.337
  C       -3.501      97.113     457.580
  N       -4.354      97.132     458.621
  C       -4.093      98.171     459.432
  C       -3.074      99.098     459.314
  C       -2.217      98.944     458.211
  N       -1.114      99.737     457.992
  N       -3.097      99.980     460.378
  C       -4.096      99.572     461.138
  N       -4.727      98.481     460.607
  O       -2.169      98.040     465.335
  O       -3.930      99.904     465.354
  H       -4.547      94.539     460.937
  H       -1.586      98.755     465.650
  H       -3.664      96.330     456.843
  H       -4.383     100.006     462.085
  H       -6.536      97.486     460.519
  H       -4.100      96.453     462.113
  H       -5.608      95.127     463.425
  H       -7.647      97.117     463.463
  H       -6.272      98.429     465.036
  H       -0.498      99.482     457.235
  H       -0.854     100.417     458.692
  H       -6.231      96.697     465.445
  P       -8.077      94.198     462.946
  C       -6.888      91.981     462.266
  O       -8.080      92.756     462.245
  O       -9.562      94.737     462.697
  O       -7.727      94.194     464.399
  H      -10.108      94.603     463.492
  H       -7.057      91.054     461.760
  H       -6.606      91.788     463.280
  H       -6.104      92.519     461.774

 6  7  8  9  10  11  12  13  14  15  25  28  32  33  34  35 0
 6-311+G(2d,p)
 ****
 36  39  40 0
 6-311+G(2d,p)
 ****
 1  2  3  4  5  16  17  18  19  20  21  22  23  24 0
 3-21G
 ****
 26  27  29  30  31  37  38  41  42  43  44  45  46  47 0
 3-21G
 ****
 48 0
 3-21G
 ****


