%nproc=1
%NoSave
%Mem=1900MB
#P OB98/GEN NMR

erre ene a

0 1
  C     -158.213    -118.645    -160.537
  O     -157.515    -117.416    -160.340
  P     -156.169    -117.457    -159.473
  C     -157.165    -117.021    -157.086
  O     -156.556    -117.925    -157.988
  C     -156.316    -116.855    -155.814
  O     -156.894    -115.790    -155.009
  C     -156.267    -118.075    -154.897
  O     -155.146    -117.946    -154.015
  C     -157.550    -117.917    -154.106
  O     -157.532    -118.696    -152.914
  C     -157.628    -116.387    -153.907
  N     -159.010    -115.864    -153.880
  C     -159.759    -116.023    -152.715
  O     -159.336    -116.574    -151.699
  N     -161.044    -115.552    -152.753
  C     -161.630    -114.918    -153.803
  O     -162.815    -114.597    -153.816
  C     -160.761    -114.651    -154.954
  C     -159.518    -115.133    -154.945
  O     -155.778    -115.916    -159.312
  O     -155.074    -118.253    -160.102
  H     -158.223    -118.317    -152.321
  H     -155.021    -115.697    -159.890
  H     -161.617    -115.721    -151.939
  H     -161.173    -114.089    -155.783
  H     -158.864    -114.969    -155.798
  H     -157.148    -116.085    -152.965
  H     -158.396    -118.260    -154.704
  H     -156.225    -119.034    -155.418
  H     -155.302    -116.543    -156.094
  H     -158.169    -117.370    -156.829
  H     -157.285    -116.044    -157.569
  P     -153.871    -118.884    -154.282
  C     -154.852    -121.000    -153.196
  O     -154.434    -120.384    -154.399
  O     -152.719    -118.693    -153.357
  O     -153.483    -118.538    -155.800
  H     -152.568    -118.815    -155.974
  H     -155.644    -121.719    -153.423
  H     -155.240    -120.263    -152.482
  H     -154.006    -121.527    -152.747
  H     -159.086    -118.468    -161.130
  H     -158.501    -119.047    -159.588
  H     -157.575    -119.341    -161.041

 3  4  5  6  7  8  9  10  11  12  13  23  28  29  30  31  32 0
 6-311+G(2d,p)
 ****
 33  34 0
 6-311+G(2d,p)
 ****
 1  2  14  15  16  17  18  19  20  21  22  24  25  26  27 0
 3-21G
 ****
 35  36  37  38  39  40  41  42  43  44  45 0
 3-21G
 ****


