%nproc=1
%NoSave
%Mem=1900MB
#P OB98/GEN NMR

erre ene a

0 1
  C     -445.204      80.501     248.120
  O     -445.897      81.658     248.533
  H     -445.545      79.657     248.725
  H     -444.132      80.641     248.283
  H     -445.391      80.276     247.068
  P     -445.947      82.918     247.548
  C     -443.716      83.854     248.449
  O     -444.440      83.420     247.303
  C     -442.293      84.286     248.085
  O     -441.602      83.191     247.447
  C     -442.269      85.459     247.101
  O     -442.329      86.736     247.709
  C     -440.932      85.249     246.396
  O     -439.862      85.900     247.103
  C     -440.747      83.728     246.428
  N     -438.900      81.762     242.083
  C     -438.236      82.476     243.061
  N     -436.927      82.722     242.831
  N     -438.812      82.914     244.153
  C     -440.143      82.676     244.196
  C     -440.914      81.998     243.277
  C     -440.252      81.452     242.112
  O     -440.791      80.799     241.224
  N     -442.240      81.988     243.639
  C     -442.278      82.733     244.726
  N     -441.023      83.104     245.146
  O     -446.553      84.085     248.467
  O     -446.772      82.738     246.311
  H     -440.042      86.862     247.101
  H     -447.071      84.699     247.914
  H     -438.397      81.427     241.284
  H     -443.178      82.993     245.271
  H     -439.720      83.457     246.698
  H     -440.950      85.677     245.391
  H     -436.456      82.486     241.974
  H     -443.064      85.356     246.358
  H     -436.452      83.401     243.428
  H     -441.743      84.522     249.005
  H     -443.685      83.008     249.135
  H     -444.247      84.667     248.949
  P     -443.047      87.961     246.975
  C     -440.844      88.533     245.668
  O     -442.234      88.300     245.645
  O     -442.720      89.198     247.933
  O     -444.514      87.801     246.746
  H     -443.475      89.390     248.520
  H     -440.501      88.741     244.676
  H     -440.343      87.666     246.044
  H     -440.633      89.369     246.301

 6  7  8  9  10  11  12  13  14  15  26  29  33  34 0
 6-311+G(2d,p)
 ****
 36  38  39  40  41 0
 6-311+G(2d,p)
 ****
 1  2  3  4  5  16  17  18  19  20  21  22  23  24  25 0
 3-21G
 ****
 27  28  30  31  32  35  37  42  43  44  45  46  47 0
 3-21G
 ****
 48  49 0
 3-21G
 ****


