%nproc=1
%NoSave
%Mem=1900MB
#P OB98/GEN NMR

erre ene a

0 1
  C       17.630      -3.869      58.948
  O       16.450      -3.346      59.552
  P       15.728      -1.992      59.113
  C       13.234      -1.255      58.784
  O       14.158      -2.157      59.372
  C       11.818      -1.840      58.654
  O       11.827      -2.917      57.682
  C       11.367      -2.455      59.979
  O       10.810      -1.638      60.990
  C       10.488      -3.631      59.579
  O        9.102      -3.291      59.537
  C       10.993      -3.985      58.177
  N       10.838      -9.058      58.818
  C        9.853      -8.119      59.048
  N        8.692      -8.577      59.561
  N       10.000      -6.843      58.813
  C       11.237      -6.508      58.385
  C       12.302      -7.344      58.138
  C       12.111      -8.764      58.347
  O       12.946      -9.640      58.148
  N       13.408      -6.643      57.733
  C       13.022      -5.384      57.759
  N       11.707      -5.251      58.141
  O       16.141      -1.441      57.791
  O       16.192      -0.941      60.246
  H        8.848      -2.959      60.416
  H       16.251      -0.068      59.808
  H       10.663     -10.032      58.994
  H       13.648      -4.537      57.505
  H       10.160      -4.081      57.470
  H       10.585      -4.449      60.303
  H        8.558      -9.526      59.875
  H       12.257      -2.901      60.442
  H        8.051      -7.874      59.933
  H       11.122      -1.092      58.265
  H       13.631      -0.992      57.800
  H       13.198      -0.329      59.361
  P       11.012      -1.812      62.569
  C       10.481      -0.499      64.703
  O       10.348      -0.550      63.294
  O       12.577      -1.558      62.788
  O       10.607      -3.142      63.114
  H       12.855      -1.889      63.662
  H        9.748       0.206      65.104
  H       11.485      -0.156      64.964
  H       10.306      -1.484      65.148
  H       17.902      -4.785      59.430
  H       18.426      -3.162      59.050
  H       17.448      -4.053      57.910

 3  4  5  6  7  8  9  10  11  12  23  26  30  31 0
 6-311+G(2d,p)
 ****
 33  35  36  37  38 0
 6-311+G(2d,p)
 ****
 1  2  13  14  15  16  17  18  19  20  21  22  24  25 0
 3-21G
 ****
 27  28  29  32  34  39  40  41  42  43  44  45  46  47  48  49 0
 3-21G
 ****


