%nproc=1
%NoSave
%Mem=1900MB
#P OB98/GEN NMR

erre ene a

0 1
  C     -132.711    -218.631     191.843
  O     -132.921    -217.757     190.754
  H     -133.678    -219.021     192.168
  H     -132.251    -218.097     192.678
  H     -132.080    -219.472     191.543
  P     -131.660    -216.996     190.120
  C     -132.480    -214.585     190.539
  O     -131.533    -215.592     190.885
  C     -131.757    -213.296     190.133
  O     -132.768    -212.288     189.861
  C     -130.836    -212.765     191.240
  O     -129.505    -212.520     190.786
  C     -131.620    -211.591     191.817
  O     -130.822    -210.596     192.422
  C     -132.452    -211.109     190.626
  N     -133.670    -210.402     191.005
  C     -133.544    -209.076     191.415
  O     -132.486    -208.455     191.473
  N     -134.712    -208.453     191.773
  C     -135.960    -209.009     191.775
  O     -136.968    -208.400     192.100
  C     -136.028    -210.419     191.354
  C     -134.898    -211.040     190.996
  O     -131.646    -216.901     188.632
  O     -130.398    -217.818     190.668
  H     -130.030    -210.474     191.856
  H     -130.028    -218.366     189.947
  H     -134.634    -207.490     192.059
  H     -137.000    -210.900     191.355
  H     -134.913    -212.080     190.680
  H     -131.867    -210.439     189.991
  H     -132.297    -211.978     192.591
  H     -130.696    -213.519     192.026
  H     -131.212    -213.473     189.199
  H     -133.116    -214.406     191.415
  H     -133.107    -214.936     189.713
  P     -128.302    -213.567     190.861
  C     -127.543    -213.081     193.334
  O     -128.092    -213.991     192.388
  O     -127.075    -213.205     190.088
  O     -128.915    -214.902     190.200
  H     -128.174    -215.362     189.758
  H     -127.485    -213.554     194.292
  H     -128.168    -212.215     193.401
  H     -126.562    -212.789     193.021

 6  7  8  9  10  11  12  13  14  15  16  26  31  32  33  34  35 0
 6-311+G(2d,p)
 ****
 36  37 0
 6-311+G(2d,p)
 ****
 1  2  3  4  5  17  18  19  20  21  22  23  24  25 0
 3-21G
 ****
 27  28  29  30  38  39  40  41  42  43  44  45 0
 3-21G
 ****


