%nproc=1
%NoSave
%Mem=1900MB
#P OB98/GEN NMR

erre ene a

0 1
  C      157.219     -22.755     -47.968
  O      156.849     -23.694     -46.975
  P      156.157     -25.078     -47.388
  C      153.928     -25.847     -48.414
  O      154.630     -24.781     -47.782
  C      152.451     -25.815     -48.028
  O      152.280     -26.091     -46.619
  C      151.779     -24.469     -48.249
  O      151.556     -24.204     -49.622
  C      150.517     -24.629     -47.409
  O      149.519     -25.372     -48.125
  C      151.045     -25.449     -46.213
  N      151.233     -24.637     -45.020
  C      150.153     -24.586     -44.132
  O      149.089     -25.141     -44.412
  N      150.309     -23.900     -42.951
  C      151.394     -23.223     -42.737
  N      151.516     -22.613     -41.524
  C      152.489     -23.120     -43.724
  C      152.355     -23.864     -44.821
  O      156.349     -26.199     -46.421
  O      156.820     -25.434     -48.804
  H      157.140     -26.357     -48.780
  H      149.395     -24.915     -48.981
  H      153.342     -22.487     -43.524
  H      153.121     -23.867     -45.590
  H      150.350     -26.266     -45.977
  H      150.072     -23.666     -47.137
  H      152.402     -23.673     -47.820
  H      151.934     -26.600     -48.597
  H      150.752     -22.721     -40.868
  H      154.371     -26.795     -48.095
  H      152.417     -22.347     -41.136
  H      154.045     -25.760     -49.500
  P      151.632     -22.669     -50.085
  C      150.175     -20.596     -49.549
  O      150.219     -21.996     -49.745
  O      151.629     -22.770     -51.689
  O      152.829     -21.926     -49.591
  H      152.203     -22.076     -52.060
  H      149.145     -20.256     -49.673
  H      150.812     -20.071     -50.268
  H      150.502     -20.360     -48.532
  H      157.663     -21.900     -47.503
  H      156.350     -22.453     -48.514
  H      157.924     -23.203     -48.637

 3  4  5  6  7  8  9  10  11  12  13  24  27  28  29  30  32 0
 6-311+G(2d,p)
 ****
 34  35 0
 6-311+G(2d,p)
 ****
 1  2  14  15  16  17  18  19  20  21  22  23  25  26 0
 3-21G
 ****
 31  33  36  37  38  39  40  41  42  43  44  45  46 0
 3-21G
 ****


