%nproc=1
%NoSave
%Mem=1900MB
#P OB98/GEN NMR

erre ene a

0 1
  C     -125.972    -724.083    1003.743
  O     -125.933    -725.442    1004.226
  P     -124.884    -725.948    1005.322
  C     -126.796    -726.403    1006.996
  O     -125.524    -725.792    1006.781
  C     -127.481    -725.860    1008.259
  O     -127.858    -724.486    1008.079
  C     -128.759    -726.587    1008.656
  O     -128.491    -727.836    1009.254
  C     -129.410    -725.559    1009.566
  O     -128.863    -725.650    1010.896
  C     -129.010    -724.228    1008.901
  N     -130.099    -723.642    1008.130
  C     -130.961    -722.779    1008.826
  O     -130.820    -722.593    1010.032
  N     -131.978    -722.172    1008.127
  C     -132.157    -722.456    1006.866
  N     -133.178    -721.818    1006.238
  C     -131.333    -723.423    1006.131
  C     -130.330    -723.971    1006.814
  O     -123.520    -725.333    1005.187
  O     -124.802    -727.533    1005.122
  H     -129.358    -726.355    1011.359
  H     -123.907    -727.841    1005.358
  H     -131.535    -723.651    1005.093
  H     -129.660    -724.681    1006.346
  H     -128.685    -723.506    1009.660
  H     -130.493    -725.691    1009.663
  H     -129.397    -726.723    1007.757
  H     -126.751    -725.911    1009.081
  H     -133.727    -721.154    1006.768
  H     -126.637    -727.482    1007.108
  H     -133.407    -721.962    1005.263
  H     -127.429    -726.229    1006.112
  P     -128.314    -729.141    1008.330
  C     -125.790    -729.294    1008.814
  O     -126.795    -729.180    1007.822
  O     -129.348    -729.322    1007.264
  O     -128.365    -730.354    1009.381
  H     -128.755    -731.134    1008.951
  H     -124.887    -729.701    1008.364
  H     -126.123    -729.947    1009.635
  H     -125.575    -728.299    1009.227
  H     -126.753    -723.984    1003.019
  H     -125.034    -723.838    1003.291
  H     -126.158    -723.419    1004.561

 3  4  5  6  7  8  9  10  11  12  13  23  27  28  29  30  32 0
 6-311+G(2d,p)
 ****
 34  35 0
 6-311+G(2d,p)
 ****
 1  2  14  15  16  17  18  19  20  21  22  24  25  26 0
 3-21G
 ****
 31  33  36  37  38  39  40  41  42  43  44  45  46 0
 3-21G
 ****


