%nproc=1
%NoSave
%Mem=1900MB
#P OB98/GEN NMR

erre ene a

0 1
  C       79.203    -153.095     -16.384
  O       78.827    -153.383     -17.719
  P       79.356    -154.760     -18.357
  C       81.317    -153.468     -19.467
  O       80.223    -154.359     -19.648
  C       81.919    -153.049     -20.812
  O       82.919    -152.027     -20.580
  C       82.580    -154.194     -21.584
  O       82.323    -153.988     -22.974
  C       84.059    -153.988     -21.321
  O       84.864    -154.567     -22.348
  C       84.137    -152.456     -21.222
  N       85.316    -152.010     -20.485
  C       86.562    -152.280     -21.061
  O       86.630    -152.935     -22.102
  N       87.696    -151.847     -20.421
  C       87.600    -151.290     -19.254
  N       88.752    -150.876     -18.659
  C       86.313    -151.099     -18.555
  C       85.224    -151.458     -19.231
  O       78.030    -155.396     -18.986
  O       80.020    -155.681     -17.385
  H       85.791    -154.267     -22.212
  H       78.061    -156.371     -18.952
  H       86.293    -150.663     -17.565
  H       84.235    -151.333     -18.806
  H       84.161    -152.005     -22.224
  H       84.337    -154.449     -20.365
  H       82.213    -155.179     -21.281
  H       81.123    -152.595     -21.415
  H       89.622    -151.033     -19.154
  H       82.096    -153.974     -18.889
  H       88.776    -150.435     -17.751
  H       80.985    -152.593     -18.903
  P       81.273    -154.968     -23.690
  C       83.065    -156.778     -23.364
  O       82.160    -156.174     -24.265
  O       80.938    -154.149     -25.029
  O       80.029    -155.331     -22.953
  H       80.248    -154.617     -25.534
  H       83.498    -157.663     -23.840
  H       82.550    -157.084     -22.450
  H       83.873    -156.079     -23.123
  H       78.784    -152.155     -16.090
  H       80.270    -153.047     -16.316
  H       78.839    -153.865     -15.737

 3  4  5  6  7  8  9  10  11  12  13  21  23  27  28  29  30  32 0
 6-311+G(2d,p)
 ****
 34  35 0
 6-311+G(2d,p)
 ****
 1  2  14  15  16  17  18  19  20  22  24  25  26 0
 3-21G
 ****
 31  33  36  37  38  39  40  41  42  43  44  45  46 0
 3-21G
 ****


