%nproc=1
%NoSave
%Mem=1900MB
#P OB98/GEN NMR

erre ene a

0 1
  C       90.487    -479.667     -11.638
  O       89.759    -478.702     -10.875
  P       88.393    -479.024     -10.110
  C       88.896    -477.740      -7.921
  O       88.084    -477.821      -9.088
  C       88.363    -476.679      -6.954
  O       88.540    -475.352      -7.516
  C       86.864    -476.745      -6.672
  O       86.529    -477.831      -5.827
  C       86.604    -475.366      -6.066
  O       86.903    -475.347      -4.665
  C       87.609    -474.486      -6.841
  N       86.958    -473.569      -7.766
  C       86.093    -472.622      -7.220
  O       85.838    -472.636      -6.013
  N       85.527    -471.687      -8.058
  C       85.721    -471.774      -9.338
  N       85.148    -470.803     -10.112
  C       86.516    -472.832      -9.977
  C       87.108    -473.692      -9.135
  O       88.357    -480.379      -9.465
  O       87.241    -478.884     -11.225
  H       86.479    -479.442     -10.970
  H       86.105    -475.684      -4.205
  H       86.630    -472.883     -11.044
  H       87.724    -474.507      -9.511
  H       88.211    -473.905      -6.125
  H       85.559    -475.061      -6.185
  H       86.320    -476.838      -7.628
  H       88.931    -476.740      -6.018
  H       84.617    -470.085      -9.648
  H       89.911    -477.463      -8.225
  H       85.259    -470.761     -11.122
  H       88.933    -478.727      -7.435
  P       85.630    -479.004      -6.462
  C       86.329    -481.366      -5.603
  O       85.567    -480.197      -5.384
  O       86.565    -479.602      -7.627
  O       84.309    -478.563      -6.995
  H       86.016    -479.826      -8.398
  H       86.553    -481.819      -4.638
  H       87.254    -481.151      -6.122
  H       85.731    -482.074      -6.188
  H       91.362    -479.210     -12.050
  H       89.870    -480.034     -12.431
  H       90.774    -480.480     -11.004

 3  4  5  6  7  8  9  10  11  12  13  24  27  28  29  30  32 0
 6-311+G(2d,p)
 ****
 34  35 0
 6-311+G(2d,p)
 ****
 1  2  14  15  16  17  18  19  20  21  22  23  25  26 0
 3-21G
 ****
 31  33  36  37  38  39  40  41  42  43  44  45  46 0
 3-21G
 ****


