%nproc=1
%NoSave
%Mem=1900MB
#P OB98/GEN NMR

erre ene a

0 1
  C      -34.550     -31.267      10.606
  O      -33.758     -32.425      10.406
  P      -34.179     -33.450       9.247
  C      -35.589     -34.773      11.027
  O      -35.520     -34.176       9.745
  C      -36.692     -35.835      11.061
  O      -37.986     -35.169      11.068
  C      -36.681     -36.803       9.871
  O      -37.099     -38.084      10.361
  C      -37.734     -36.214       8.948
  O      -38.253     -37.165       8.032
  C      -38.754     -35.701       9.970
  N      -39.654     -34.679       9.432
  C      -40.660     -35.092       8.563
  O      -40.824     -36.258       8.208
  N      -41.475     -34.098       8.084
  C      -41.345     -32.762       8.326
  O      -42.092     -31.913       7.853
  C      -40.234     -32.381       9.210
  C      -39.461     -33.341       9.721
  O      -33.049     -34.571       9.400
  O      -34.270     -32.825       7.896
  H      -32.784     -34.720      10.323
  H      -38.837     -36.698       7.407
  H      -42.236     -34.378       7.482
  H      -40.087     -31.327       9.414
  H      -38.635     -33.085      10.375
  H      -39.343     -36.537      10.364
  H      -37.295     -35.391       8.372
  H      -35.693     -36.886       9.408
  H      -36.607     -36.388      12.005
  H      -35.809     -34.006      11.774
  H      -34.616     -35.213      11.274
  P      -36.375     -39.396       9.772
  C      -38.177     -39.789       7.913
  O      -36.828     -39.547       8.243
  O      -37.223     -40.542      10.510
  O      -34.911     -39.486      10.053
  H      -38.181     -40.403      10.445
  H      -38.336     -39.528       6.863
  H      -38.853     -39.190       8.528
  H      -38.403     -40.851       8.049
  H      -34.141     -30.690      11.409
  H      -35.551     -31.557      10.849
  H      -34.556     -30.680       9.711

 3  4  5  6  7  8  9  10  11  12  13  24  28  29  30  31  32 0
 6-311+G(2d,p)
 ****
 33  34 0
 6-311+G(2d,p)
 ****
 1  2  14  15  16  17  18  19  20  21  22  23  25  26  27 0
 3-21G
 ****
 35  36  37  38  39  40  41  42  43  44  45 0
 3-21G
 ****


