%nproc=1
%NoSave
%Mem=1900MB
#P OB98/GEN NMR

erre ene a

0 1
  C     -130.601     661.766     408.589
  O     -130.934     662.954     409.294
  H     -131.500     661.150     408.504
  H     -129.839     661.200     409.128
  H     -130.253     662.015     407.588
  P     -129.735     663.892     409.796
  C     -130.151     663.706     412.336
  O     -130.245     664.529     411.183
  C     -130.535     664.463     413.608
  O     -130.603     663.564     414.735
  C     -129.540     665.541     414.011
  O     -129.444     666.632     413.121
  C     -129.917     665.791     415.465
  O     -131.026     666.688     415.586
  C     -130.337     664.370     415.921
  N     -129.334     663.747     416.771
  C     -129.694     663.576     418.111
  O     -130.766     663.965     418.580
  N     -128.753     663.004     418.915
  C     -127.497     662.608     418.528
  O     -126.688     662.104     419.303
  C     -127.160     662.829     417.111
  C     -128.086     663.377     416.309
  O     -129.245     664.907     408.800
  O     -128.604     662.861     410.264
  H     -130.772     667.519     415.141
  H     -127.725     663.306     410.363
  H     -129.000     662.866     419.888
  H     -126.178     662.541     416.776
  H     -127.868     663.546     415.263
  H     -131.290     664.406     416.475
  H     -129.090     666.208     416.038
  H     -128.531     665.088     414.036
  H     -131.541     664.893     413.455
  H     -129.101     663.367     412.419
  H     -130.791     662.822     412.207
  P     -128.073     667.156     412.498
  C     -127.583     668.526     414.689
  O     -127.649     668.509     413.259
  O     -127.949     667.115     411.015
  O     -127.016     666.090     413.105
  H     -126.311     665.965     412.422
  H     -127.287     669.499     415.021
  H     -126.868     667.803     415.022
  H     -128.545     668.288     415.093

 6  7  8  9  10  11  12  13  14  15  16  26  31  32  33  34  35 0
 6-311+G(2d,p)
 ****
 36  37 0
 6-311+G(2d,p)
 ****
 1  2  3  4  5  17  18  19  20  21  22  23  24  25 0
 3-21G
 ****
 27  28  29  30  38  39  40  41  42  43  44  45 0
 3-21G
 ****


