%nproc=1
%NoSave
%Mem=1900MB
#P OB98/GEN NMR

erre ene a

0 1
  C      320.809     116.269    -119.170
  O      320.417     116.676    -120.471
  P      320.872     115.750    -121.700
  C      322.568     117.406    -122.784
  O      322.372     116.196    -122.056
  C      324.055     117.726    -122.893
  O      324.631     117.848    -121.581
  C      324.871     116.651    -123.598
  O      324.690     116.735    -125.002
  C      326.282     116.991    -123.133
  O      326.880     117.988    -123.981
  C      326.041     117.551    -121.710
  N      326.491     116.640    -120.665
  C      327.880     116.524    -120.516
  O      328.636     117.156    -121.259
  N      328.368     115.665    -119.562
  C      327.545     114.986    -118.830
  N      328.083     114.152    -117.893
  C      326.075     115.064    -118.965
  C      325.623     115.894    -119.903
  O      320.017     116.325    -122.925
  O      320.660     114.284    -121.495
  H      326.687     117.702    -124.898
  H      319.870     115.640    -123.602
  H      325.439     114.471    -118.331
  H      324.557     116.017    -120.075
  H      326.570     118.505    -121.582
  H      326.938     116.118    -123.153
  H      324.590     115.658    -123.236
  H      324.162     118.696    -123.406
  H      329.096     114.114    -117.828
  H      322.063     118.224    -122.262
  H      327.528     113.596    -117.259
  H      322.121     117.295    -123.776
  P      324.951     115.409    -125.861
  C      327.032     116.494    -126.899
  O      326.524     115.408    -126.146
  O      324.348     115.815    -127.297
  O      324.362     114.140    -125.346
  H      324.360     115.043    -127.888
  H      328.123     116.451    -126.885
  H      326.709     117.444    -126.458
  H      326.689     116.423    -127.934
  H      320.442     116.971    -118.451
  H      321.877     116.228    -119.116
  H      320.404     115.301    -118.962

 3  4  5  6  7  8  9  10  11  12  13  21  23  27  28  29  30  32 0
 6-311+G(2d,p)
 ****
 34  35 0
 6-311+G(2d,p)
 ****
 1  2  14  15  16  17  18  19  20  22  24  25  26 0
 3-21G
 ****
 31  33  36  37  38  39  40  41  42  43  44  45  46 0
 3-21G
 ****


