%nproc=1
%NoSave
%Mem=1900MB
#P OB98/GEN NMR

erre ene a

0 1
  C       55.560    -126.017     128.567
  O       56.932    -125.697     128.447
  H       55.009    -125.110     128.825
  H       55.419    -126.754     129.362
  H       55.176    -126.409     127.620
  P       57.899    -126.855     127.896
  C       59.798    -125.160     127.253
  O       59.388    -126.274     128.026
  C       61.325    -125.089     127.179
  O       61.843    -124.836     128.509
  C       61.975    -126.373     126.660
  O       63.122    -126.018     125.885
  C       62.427    -127.074     127.931
  O       63.486    -127.996     127.689
  C       62.794    -125.875     128.820
  N       62.780    -126.211     130.242
  C       63.998    -126.598     130.808
  O       65.014    -126.658     130.114
  N       64.033    -126.949     132.133
  C       62.934    -126.976     132.820
  N       63.031    -127.358     134.122
  C       61.619    -126.619     132.253
  C       61.617    -126.241     130.976
  O       57.606    -126.805     126.324
  O       57.679    -128.191     128.523
  H       64.281    -127.492     127.407
  H       57.577    -125.903     125.964
  H       60.729    -126.667     132.863
  H       60.697    -125.954     130.481
  H       63.793    -125.499     128.565
  H       61.592    -127.630     128.371
  H       61.295    -126.980     126.060
  H       61.604    -124.229     126.560
  H       63.948    -127.616     134.463
  H       59.413    -124.233     127.688
  H       62.236    -127.469     134.733
  H       59.374    -125.268     126.250
  P       63.041    -126.076     124.288
  C       64.158    -123.796     123.792
  O       64.238    -125.212     123.665
  O       61.697    -125.819     123.697
  O       63.508    -127.582     123.968
  H       62.938    -127.924     123.253
  H       65.016    -123.348     123.336
  H       64.127    -123.532     124.828
  H       63.271    -123.444     123.307

 6  7  8  9  10  11  12  13  14  15  16  26  30  31  32  33  35 0
 6-311+G(2d,p)
 ****
 37  38 0
 6-311+G(2d,p)
 ****
 1  2  3  4  5  17  18  19  20  21  22  23  24  25 0
 3-21G
 ****
 27  28  29  34  36  39  40  41  42  43  44  45  46 0
 3-21G
 ****


