%nproc=1
%NoSave
%Mem=1900MB
#P OB98/GEN NMR

erre ene a

0 1
  C      360.156     169.384     627.246
  O      359.555     168.943     626.048
  H      360.908     170.142     627.009
  H      360.644     168.548     627.753
  H      359.405     169.836     627.906
  P      358.396     167.845     626.184
  C      360.102     165.895     625.949
  O      358.932     166.527     625.440
  C      360.299     164.550     625.255
  O      359.216     163.654     625.610
  C      360.281     164.627     623.737
  O      361.507     165.100     623.201
  C      359.975     163.186     623.368
  O      361.161     162.380     623.369
  C      359.032     162.746     624.496
  N      355.521     160.250     621.747
  C      356.813     159.962     622.047
  N      357.677     160.674     622.794
  C      357.079     161.780     623.286
  C      355.779     162.203     623.071
  C      354.981     161.381     622.256
  N      353.679     161.690     621.927
  N      355.551     163.411     623.708
  C      356.691     163.700     624.296
  N      357.642     162.749     624.074
  O      357.253     168.396     625.209
  O      357.887     167.632     627.569
  H      360.900     161.511     622.997
  H      356.565     168.847     625.730
  H      357.195     159.040     621.619
  H      356.878     164.591     624.891
  H      359.258     161.732     624.862
  H      359.530     163.123     622.373
  H      359.450     165.262     623.401
  H      361.244     164.104     625.611
  H      359.987     165.736     627.024
  H      360.960     166.547     625.779
  H      353.183     161.092     621.295
  H      353.302     162.585     622.214
  P      361.547     166.597     622.625
  C      360.260     165.844     620.475
  O      361.397     166.492     621.035
  O      363.058     167.056     622.841
  O      360.577     167.536     623.265
  H      363.094     168.008     623.062
  H      360.326     165.867     619.407
  H      359.371     166.350     620.789
  H      360.229     164.828     620.808

 6  7  8  9  10  11  12  13  14  15  25  28  32  33  34  35 0
 6-311+G(2d,p)
 ****
 36  37  40 0
 6-311+G(2d,p)
 ****
 1  2  3  4  5  16  17  18  19  20  21  22  23  24 0
 3-21G
 ****
 26  27  29  30  31  38  39 41  42  43  44  45  46  47  48 0
 3-21G
 ****


