%nproc=1
%NoSave
%Mem=1900MB
#P OB98/GEN NMR

erre ene a

0 1
  C     -229.020    -613.658     -15.736
  O     -230.383    -613.313     -15.509
  P     -231.477    -613.861     -16.552
  C     -230.997    -611.970     -18.281
  O     -231.015    -613.361     -18.014
  C     -231.283    -611.711     -19.764
  O     -231.581    -610.297     -19.942
  C     -230.127    -612.048     -20.707
  O     -230.708    -612.489     -21.951
  C     -229.441    -610.704     -20.918
  O     -228.658    -610.665     -22.113
  C     -230.657    -609.771     -20.923
  N     -230.361    -605.005     -22.589
  C     -230.690    -606.169     -23.276
  N     -231.051    -606.015     -24.570
  N     -230.670    -607.354     -22.738
  C     -230.307    -607.343     -21.426
  C     -229.918    -606.270     -20.658
  C     -229.980    -604.955     -21.255
  O     -229.781    -603.889     -20.666
  N     -229.537    -606.665     -19.404
  C     -229.769    -607.964     -19.390
  N     -230.282    -608.417     -20.580
  O     -232.755    -612.961     -16.226
  O     -231.773    -615.330     -16.478
  H     -228.275    -609.765     -22.181
  H     -233.349    -613.405     -15.588
  H     -230.413    -604.113     -23.058
  H     -229.591    -608.620     -18.554
  H     -231.162    -609.742     -21.896
  H     -228.783    -610.490     -20.069
  H     -231.115    -605.132     -25.036
  H     -229.446    -612.814     -20.324
  H     -231.326    -606.849     -25.074
  H     -232.182    -612.273     -20.048
  H     -230.002    -611.574     -18.045
  H     -231.731    -611.455     -17.656
  P     -229.788    -613.354     -22.947
  C     -229.099    -611.260     -24.310
  O     -228.673    -612.368     -23.545
  O     -230.770    -613.592     -24.193
  O     -229.306    -614.650     -22.394
  H     -230.561    -614.460     -24.611
  H     -228.307    -610.499     -24.302
  H     -230.017    -610.814     -23.916
  H     -229.266    -611.567     -25.354
  H     -228.411    -613.228     -14.969
  H     -228.711    -613.283     -16.689
  H     -228.914    -614.723     -15.720

 3  4  5  6  7  8  9  10  11  12  23  26  30  31 0
 6-311+G(2d,p)
 ****
 33  35  36  37  38 0
 6-311+G(2d,p)
 ****
 1  2  13  14  15  16  17  18  19  20  21  22  24  25 0
 3-21G
 ****
 27  28  29  32  34  39  40  41  42  43  44  45  46  47  48  49 0
 3-21G
 ****


