%nproc=1
%NoSave
%Mem=1900MB
#P OB98/GEN NMR

erre ene a

0 1
  C      -13.562    1406.802    1343.700
  O      -12.931    1406.456    1342.483
  H      -13.102    1407.724    1344.073
  H      -13.428    1406.013    1344.423
  H      -14.619    1406.989    1343.524
  P      -13.371    1405.086    1341.789
  C      -12.873    1403.473    1343.774
  O      -12.502    1403.925    1342.464
  C      -11.792    1402.487    1344.271
  O      -11.927    1401.231    1343.600
  C      -10.362    1402.961    1344.055
  O       -9.935    1403.943    1344.999
  C       -9.609    1401.648    1344.179
  O       -9.312    1401.355    1345.574
  C      -10.606    1400.606    1343.608
  N      -10.204    1400.176    1342.279
  C       -8.981    1399.548    1342.151
  O       -8.260    1399.344    1343.147
  N       -8.564    1399.163    1340.922
  C       -9.249    1399.404    1339.765
  O       -8.803    1399.110    1338.642
  C      -10.545    1400.122    1339.874
  C      -10.960    1400.470    1341.135
  O      -12.773    1405.194    1340.302
  O      -14.846    1404.828    1341.769
  H      -13.504    1405.360    1339.670
  H       -8.896    1400.453    1345.567
  H       -7.701    1398.708    1340.847
  H      -11.095    1400.355    1339.002
  H      -11.900    1400.993    1341.238
  H      -10.665    1399.724    1344.241
  H       -8.656    1401.683    1343.664
  H      -10.259    1403.324    1343.008
  H      -11.975    1402.346    1345.373
  H      -13.829    1402.953    1343.740
  H      -12.947    1404.341    1344.428
  P      -10.063    1405.503    1344.558
  C       -7.731    1405.612    1343.313
  O       -8.558    1406.037    1344.422
  O      -10.601    1406.108    1345.940
  O      -10.974    1405.689    1343.402
  H      -10.288    1405.591    1346.730
  H       -6.767    1406.069    1343.391
  H       -8.191    1405.905    1342.392
  H       -7.624    1404.548    1343.335

 6  7  8  9  10  11  12  13  14  15  16  27  31  32  33  34  35 0
 6-311+G(2d,p)
 ****
 36  37 0
 6-311+G(2d,p)
 ****
 1  2  3  4  5  17  18  19  20  21  22  23  24  25 0
 3-21G
 ****
 26  28  29  30  38  39  40  41  42  43  44  45 0
 3-21G
 ****


