%nproc=1
%NoSave
%Mem=1900MB
#P OB98/GEN NMR

erre ene a

0 1
  C      877.930    -489.996    -324.749
  O      878.149    -489.087    -323.672
  P      876.861    -488.320    -323.092
  C      877.945    -487.429    -320.864
  O      877.387    -487.145    -322.138
  C      879.494    -487.392    -320.903
  O      879.901    -486.108    -321.472
  C      880.171    -487.478    -319.552
  O      881.539    -487.864    -319.741
  C      880.111    -486.043    -319.073
  O      881.052    -485.789    -318.031
  C      880.346    -485.252    -320.384
  N      879.629    -483.973    -320.437
  C      880.016    -482.942    -319.560
  O      880.936    -483.070    -318.720
  N      879.300    -481.792    -319.606
  C      878.280    -481.521    -320.473
  O      877.620    -480.505    -320.422
  C      877.995    -482.559    -321.472
  C      878.673    -483.715    -321.408
  O      876.205    -489.371    -322.082
  O      875.905    -487.873    -324.140
  H      881.081    -484.826    -317.892
  H      875.418    -489.766    -322.476
  H      879.537    -481.084    -318.932
  H      877.244    -482.363    -322.223
  H      878.474    -484.509    -322.129
  H      881.412    -485.034    -320.538
  H      879.126    -485.828    -318.678
  H      879.705    -488.161    -318.837
  H      879.841    -488.180    -321.582
  H      877.595    -488.394    -320.522
  H      877.590    -486.697    -320.127
  P      881.995    -489.348    -319.328
  C      884.203    -489.387    -320.625
  O      883.582    -489.346    -319.353
  O      881.318    -490.464    -320.070
  O      881.646    -489.382    -317.757
  H      881.594    -490.327    -317.461
  H      885.180    -488.890    -320.549
  H      883.602    -488.877    -321.374
  H      884.356    -490.421    -320.928
  H      878.861    -490.436    -325.039
  H      877.510    -489.469    -325.580
  H      877.255    -490.764    -324.435

 3  4  5  6  7  8  9  10  11  12  13  23  28  29  30  31  32 0
 6-311+G(2d,p)
 ****
 33  34 0
 6-311+G(2d,p)
 ****
 1  2  14  15  16  17  18  19  20  21  22  24  25  26  27 0
 3-21G
 ****
 35  36  37  38  39  40  41  42  43  44  45 0
 3-21G
 ****


