%nproc=1
%NoSave
%Mem=1900MB
#P OB98/GEN NMR

erre ene a

0 1
  C      -54.192     691.213     378.248
  O      -53.157     691.764     377.422
  P      -53.444     693.144     376.658
  C      -51.448     694.553     377.549
  O      -52.050     693.914     376.441
  C      -50.437     695.612     377.076
  O      -49.239     695.002     376.552
  C      -50.969     696.497     375.966
  O      -51.778     697.561     376.465
  C      -49.662     697.057     375.396
  O      -49.195     698.142     376.220
  C      -48.714     695.852     375.515
  N      -46.410     695.472     370.940
  C      -46.300     696.391     371.925
  N      -46.971     696.432     373.095
  C      -47.789     695.380     373.219
  C      -48.007     694.360     372.303
  C      -47.258     694.431     371.107
  N      -47.370     693.492     370.103
  N      -48.934     693.450     372.777
  C      -49.274     693.920     373.965
  N      -48.622     695.076     374.273
  O      -54.180     694.029     377.776
  O      -54.294     692.990     375.433
  H      -48.414     698.525     375.760
  H      -54.852     694.605     377.349
  H      -45.609     697.201     371.752
  H      -49.984     693.432     374.631
  H      -47.698     696.149     375.788
  H      -49.779     697.461     374.388
  H      -51.483     695.901     375.192
  H      -50.160     696.234     377.952
  H      -50.942     693.825     378.192
  H      -46.780     693.584     369.286
  H      -47.989     692.705     370.242
  H      -52.234     695.015     378.168
  P      -53.350     697.293     376.572
  C      -53.514     699.708     377.517
  O      -54.039     698.733     376.633
  O      -53.523     696.714     378.058
  O      -53.876     696.347     375.538
  H      -54.283     696.094     378.087
  H      -53.882     700.697     377.217
  H      -52.420     699.710     377.514
  H      -53.876     699.484     378.543
  H      -53.850     690.298     378.686
  H      -55.060     691.021     377.652
  H      -54.438     691.909     379.023

 3  4  5  6  7  8  9  10  11  12  22  25  29  30  31  32 0
 6-311+G(2d,p)
 ****
 33  36  37 0
 6-311+G(2d,p)
 ****
 1  2  13  14  15  16  17  18  19  20  21  23  24  26 0
 3-21G
 ****
 27  28  34  35  38  39  40  41  42  43  44  45  46  47  48 0
 3-21G
 ****


