%nproc=1
%NoSave
%Mem=1900MB
#P OB98/GEN NMR

erre ene a

0 1
  C       14.091     101.642     310.311
  O       14.131     100.457     311.086
  P       13.736     100.574     312.639
  C       12.357      98.367     312.500
  O       12.370      99.751     312.836
  C       11.095      98.031     311.708
  O       11.136      98.666     310.413
  C       10.894      96.546     311.430
  O       10.444      95.864     312.587
  C        9.880      96.611     310.291
  O        8.566      96.859     310.813
  C       10.367      97.839     309.496
  N       10.408      95.828     304.782
  C        9.415      96.019     305.677
  N        9.481      96.542     306.919
  C       10.748      96.892     307.213
  C       11.870      96.735     306.420
  C       11.666      96.181     305.144
  N       12.695      95.981     304.242
  N       12.999      97.187     307.072
  C       12.564      97.617     308.235
  N       11.207      97.471     308.368
  O       13.268     102.094     312.778
  O       14.831     100.233     313.597
  H        8.391      96.183     311.499
  H       13.500     102.455     313.658
  H        8.421      95.709     305.343
  H       13.184      98.046     309.016
  H        9.541      98.445     309.109
  H        9.832      95.688     309.699
  H       11.825      96.097     311.072
  H       10.230      98.434     312.261
  H       12.372      97.768     313.415
  H       12.487      95.443     303.412
  H       13.641      96.115     304.561
  H       13.254      98.133     311.919
  P       11.381      94.689     313.158
  C       10.864      95.192     315.626
  O       11.839      95.233     314.598
  O       12.698      94.869     312.272
  O       10.762      93.333     313.142
  H       12.998      95.794     312.245
  H       11.319      95.535     316.552
  H       10.504      94.167     315.765
  H       10.027      95.850     315.376
  H       14.375     101.419     309.304
  H       14.769     102.360     310.722
  H       13.099     102.042     310.321

 3  4  5  6  7  8  9  10  11  12  22  25  29  30  31  32 0
 6-311+G(2d,p)
 ****
 33  36  37 0
 6-311+G(2d,p)
 ****
 1  2  13  14  15  16  17  18  19  20  21  23  24  26 0
 3-21G
 ****
 27  28  34  35  38  39  40  41  42  43  44  45  46  47  48 0
 3-21G
 ****


