%nproc=1
%NoSave
%Mem=1900MB
#P OB98/GEN NMR

erre ene a

0 1
  C     -595.901     873.350    -136.593
  O     -596.313     874.688    -136.755
  H     -596.193     873.011    -135.594
  H     -594.815     873.278    -136.683
  H     -596.381     872.705    -137.337
  P     -596.169     875.315    -138.229
  C     -598.217     876.910    -138.071
  O     -596.795     876.792    -138.158
  C     -598.584     878.292    -137.529
  O     -598.330     878.361    -136.105
  C     -597.814     879.449    -138.163
  O     -598.383     879.836    -139.400
  C     -598.005     880.515    -137.106
  O     -599.331     881.071    -137.210
  C     -597.879     879.719    -135.805
  N     -594.688     881.504    -132.286
  C     -596.019     881.839    -132.531
  N     -596.568     882.757    -131.725
  N     -596.729     881.280    -133.478
  C     -596.045     880.370    -134.199
  C     -594.729     879.980    -134.069
  C     -593.953     880.580    -133.002
  O     -592.778     880.324    -132.740
  N     -594.392     879.030    -134.986
  C     -595.491     878.851    -135.705
  N     -596.521     879.652    -135.279
  O     -597.240     874.498    -139.092
  O     -594.801     875.220    -138.831
  H     -599.491     881.586    -136.401
  H     -596.891     874.362    -139.995
  H     -594.183     881.965    -131.547
  H     -595.586     878.163    -136.537
  H     -598.509     880.105    -134.994
  H     -597.299     881.347    -137.212
  H     -596.062     883.254    -131.016
  H     -596.750     879.214    -138.256
  H     -597.547     882.974    -131.866
  H     -599.664     878.429    -137.668
  H     -598.581     876.138    -137.387
  H     -598.647     876.762    -139.058
  P     -597.474     879.666    -140.722
  C     -599.503     879.143    -142.262
  O     -598.438     880.029    -141.953
  O     -597.319     878.073    -140.829
  O     -596.165     880.350    -140.677
  H     -596.525     877.852    -141.354
  H     -600.050     879.521    -143.101
  H     -600.156     879.062    -141.418
  H     -599.107     878.178    -142.500

 6  7  8  9  10  11  12  13  14  15  26  29  33  34 0
 6-311+G(2d,p)
 ****
 36  38  39  40  41 0
 6-311+G(2d,p)
 ****
 1  2  3  4  5  16  17  18  19  20  21  22  23  24  25 0
 3-21G
 ****
 27  28  30  31  32  35  37  42  43  44  45  46  47 0
 3-21G
 ****
 48  49 0
 3-21G
 ****


