%nproc=1
%NoSave
%Mem=1900MB
#P OB98/GEN NMR

erre ene a

0 1
  C       33.620       5.986    -152.119
  O       34.336       4.767    -151.899
  P       34.904       4.534    -150.417
  C       37.444       4.660    -150.941
  O       36.325       5.270    -150.311
  C       38.698       5.523    -150.774
  O       39.056       5.708    -149.393
  C       39.930       4.936    -151.452
  O       39.892       5.201    -152.842
  C       41.055       5.663    -150.730
  O       41.304       6.959    -151.316
  C       40.500       5.818    -149.306
  N       44.581       4.230    -146.745
  C       44.478       5.162    -147.761
  N       45.622       5.774    -148.131
  N       43.356       5.464    -148.362
  C       42.291       4.778    -147.885
  C       42.260       3.853    -146.866
  C       43.508       3.523    -146.214
  O       43.645       2.724    -145.295
  N       40.981       3.411    -146.626
  C       40.266       3.973    -147.585
  N       41.000       4.862    -148.335
  O       35.271       2.976    -150.403
  O       33.924       4.876    -149.343
  H       40.559       7.551    -151.111
  H       34.647       2.495    -149.827
  H       45.470       4.032    -146.324
  H       39.218       3.794    -147.760
  H       40.721       6.812    -148.896
  H       41.999       5.116    -150.791
  H       46.522       5.591    -147.715
  H       39.990       3.858    -151.254
  H       45.570       6.463    -148.870
  H       38.477       6.510    -151.203
  H       37.236       4.508    -152.002
  H       37.594       3.666    -150.503
  P       39.633       3.969    -153.835
  C       42.130       3.468    -154.349
  O       40.922       3.018    -153.768
  O       39.727       4.646    -155.286
  O       38.321       3.285    -153.643
  H       38.999       4.311    -155.846
  H       42.969       3.028    -153.804
  H       42.217       4.558    -154.314
  H       42.170       3.137    -155.392
  H       33.293       6.029    -153.137
  H       34.261       6.818    -151.916
  H       32.771       6.023    -151.469

 3  4  5  6  7  8  9  10  11  12  23  26  30  31 0
 6-311+G(2d,p)
 ****
 33  35  36  37  38 0
 6-311+G(2d,p)
 ****
 1  2  13  14  15  16  17  18  19  20  21  22  24  25 0
 3-21G
 ****
 27  28  29  32  34  39  40  41  42  43  44  45  46  47  48  49 0
 3-21G
 ****


