%nproc=1
%NoSave
%Mem=1900MB
#P OB98/GEN NMR

erre ene a

0 1
  C      740.676     439.591    1228.289
  O      741.449     438.700    1227.506
  H      740.098     440.233    1227.620
  H      741.323     440.219    1228.907
  H      739.979     439.029    1228.925
  P      742.479     437.721    1228.249
  C      744.679     439.077    1228.469
  O      743.943     438.113    1227.719
  C      746.152     439.090    1228.032
  O      746.748     437.808    1228.398
  C      746.357     439.273    1226.518
  O      747.613     439.946    1226.336
  C      746.449     437.842    1226.052
  O      746.950     437.758    1224.736
  C      747.278     437.225    1227.177
  N      747.208     435.771    1227.194
  C      748.051     435.105    1226.296
  O      748.774     435.741    1225.538
  N      748.014     433.728    1226.265
  C      747.175     433.092    1227.008
  N      747.176     431.730    1226.913
  C      746.239     433.755    1227.928
  C      746.310     435.092    1227.982
  O      742.160     436.273    1228.181
  O      742.494     438.256    1229.760
  H      747.930     437.927    1224.724
  H      741.979     437.648    1230.328
  H      745.536     433.177    1228.521
  H      745.663     435.678    1228.626
  H      748.341     437.523    1227.092
  H      745.448     437.379    1226.023
  H      745.547     439.844    1226.045
  H      746.678     439.870    1228.615
  H      747.839     431.315    1226.253
  H      744.600     438.806    1229.519
  H      746.551     431.125    1227.435
  H      744.243     440.077    1228.322
  P      747.749     441.357    1225.551
  C      749.598     440.340    1224.058
  O      749.199     441.438    1224.884
  O      747.378     442.549    1226.391
  O      746.760     441.226    1224.296
  H      746.411     442.114    1224.086
  H      750.582     440.519    1223.677
  H      748.912     440.239    1223.243
  H      749.598     439.440    1224.637

 6  7  8  9  10  11  12  13  14  15  16  26  30  31  32  33  35 0
 6-311+G(2d,p)
 ****
 37  38 0
 6-311+G(2d,p)
 ****
 1  2  3  4  5  17  18  19  20  21  22  23  24  25 0
 3-21G
 ****
 27  28  29  34  36  39  40  41  42  43  44  45  46 0
 3-21G
 ****


