%nproc=1
%NoSave
%Mem=1900MB
#P OB98/GEN NMR

erre ene a

0 1
  C     -101.359     255.428     470.837
  O     -100.037     255.609     471.348
  P      -99.536     255.091     472.771
  C      -98.356     257.372     473.310
  O      -98.260     255.960     473.201
  C      -97.071     258.102     472.860
  O      -97.039     258.177     471.409
  C      -97.070     259.544     473.363
  O      -96.632     259.837     474.686
  C      -96.341     260.329     472.285
  O      -94.947     260.483     472.557
  C      -96.552     259.478     471.028
  N      -97.104     262.604     467.014
  C      -95.964     262.314     467.744
  N      -94.843     262.971     467.403
  N      -95.942     261.461     468.739
  C      -97.152     260.939     469.035
  C      -98.353     261.167     468.400
  C      -98.362     262.062     467.258
  O      -99.336     262.341     466.571
  N      -99.376     260.472     468.989
  C      -98.801     259.846     470.004
  N      -97.446     260.096     470.069
  O      -99.429     253.612     472.922
  O     -100.689     255.601     473.777
  H      -94.579     259.603     472.746
  H     -100.757     254.933     474.494
  H      -97.061     263.246     466.239
  H      -99.314     259.208     470.707
  H      -95.602     259.309     470.503
  H      -96.751     261.346     472.201
  H      -94.821     263.722     466.730
  H      -98.110     259.894     473.333
  H      -94.065     262.928     468.066
  H      -96.182     257.536     473.156
  H      -98.569     257.594     474.356
  H      -99.205     257.738     472.727
  P      -97.493     260.550     475.825
  C      -95.664     262.166     476.610
  O      -96.488     261.065     476.960
  O      -98.251     259.345     476.552
  O      -98.471     261.576     475.332
  H      -98.999     259.679     477.084
  H      -94.827     262.220     477.322
  H      -96.236     263.090     476.666
  H      -95.261     262.046     475.600
  H     -101.429     255.869     469.865
  H     -102.062     255.897     471.493
  H     -101.576     254.382     470.770

 3  4  5  6  7  8  9  10  11  12  23  26  30  31 0
 6-311+G(2d,p)
 ****
 33  35  36  37  38 0
 6-311+G(2d,p)
 ****
 1  2  13  14  15  16  17  18  19  20  21  22  24  25 0
 3-21G
 ****
 27  28  29  32  34  39  40  41  42  43  44  45  46  47  48  49 0
 3-21G
 ****


