%nproc=1
%NoSave
%Mem=1900MB
#P OB98/GEN NMR

erre ene a

0 1
  C        1.581     113.825    -105.876
  O        0.875     113.131    -106.906
  P       -0.298     112.117    -106.499
  C        1.020     110.117    -105.552
  O        0.194     111.231    -105.252
  C        1.134     109.180    -104.342
  O        1.843     109.837    -103.250
  C       -0.236     108.756    -103.796
  O       -0.176     107.422    -103.266
  C       -0.448     109.708    -102.635
  O       -1.405     109.203    -101.707
  C        0.977     109.818    -102.096
  N       -0.212     112.184     -97.714
  C       -0.531     110.959     -98.188
  N       -0.159     110.389     -99.353
  C        0.636     111.213    -100.054
  C        1.054     112.485     -99.694
  C        0.588     112.977     -98.462
  N        0.888     114.235     -97.992
  N        1.863     113.033    -100.670
  C        1.891     112.125    -101.624
  N        1.195     110.997    -101.285
  O       -0.903     111.342    -107.620
  O       -1.383     113.086    -105.822
  H       -2.282     109.266    -102.129
  H       -2.276     112.822    -106.118
  H       -1.175     110.361     -97.550
  H        2.386     112.239    -102.578
  H        1.251     108.944    -101.492
  H       -0.806     110.674    -103.008
  H       -1.052     108.806    -104.524
  H        1.725     108.302    -104.624
  H        2.013     110.462    -105.850
  H        0.416     114.544     -97.156
  H        1.359     114.886     -98.605
  H        0.611     109.592    -106.423
  P       -0.820     106.267    -104.184
  C       -3.125     106.284    -102.952
  O       -2.402     106.508    -104.141
  O       -0.351     104.894    -103.831
  O       -0.387     106.735    -105.651
  H       -0.585     107.665    -105.858
  H       -4.154     106.625    -103.095
  H       -2.688     106.840    -102.119
  H       -3.141     105.216    -102.716
  H        2.325     114.456    -106.316
  H        2.053     113.117    -105.227
  H        0.894     114.422    -105.313

 3  4  5  6  7  8  9  10  11  12  22  25  29  30  31  32 0
 6-311+G(2d,p)
 ****
 33  36  37 0
 6-311+G(2d,p)
 ****
 1  2  13  14  15  16  17  18  19  20  21  23  24  26 0
 3-21G
 ****
 27  28  34  35  38  39  40  41  42  43  44  45  46  47  48 0
 3-21G
 ****


