%nproc=1
%NoSave
%Mem=1900MB
#P OB98/GEN NMR

erre ene a

0 1
  C      503.993     186.989     163.082
  O      505.407     187.043     162.959
  P      506.272     186.033     163.849
  C      506.659     188.113     165.352
  O      507.209     186.932     164.796
  C      507.601     188.710     166.404
  O      507.937     187.672     167.371
  C      508.920     189.261     165.840
  O      509.265     190.393     166.638
  C      509.878     188.106     166.089
  O      511.242     188.461     166.020
  C      509.371     187.627     167.449
  N      512.728     184.887     170.175
  C      512.477     186.218     170.122
  N      511.568     186.874     169.370
  C      510.855     186.002     168.636
  C      511.011     184.634     168.560
  C      511.999     184.063     169.385
  N      512.253     182.716     169.432
  N      510.108     184.081     167.663
  C      509.435     185.115     167.206
  N      509.831     186.295     167.768
  O      507.303     185.407     162.801
  O      505.476     184.974     164.560
  H      511.587     188.334     165.117
  H      507.447     184.460     162.974
  H      513.109     186.836     170.761
  H      508.658     185.051     166.456
  H      509.691     188.291     168.265
  H      509.708     187.336     165.327
  H      508.848     189.564     164.790
  H      507.060     189.500     166.949
  H      505.708     187.875     165.839
  H      513.112     182.430     169.884
  H      511.842     182.142     168.691
  H      506.456     188.839     164.560
  P      509.596     191.789     165.911
  C      512.160     191.827     166.141
  O      510.928     192.300     166.655
  O      508.484     192.743     166.546
  O      509.617     191.748     164.421
  H      508.472     192.685     167.523
  H      512.984     192.329     166.667
  H      512.239     192.058     165.071
  H      512.247     190.753     166.303
  H      503.551     187.715     162.433
  H      503.715     187.198     164.094
  H      503.649     186.013     162.812

 3  4  5  6  7  8  9  10  11  12  22  25  29  30  31  32 0
 6-311+G(2d,p)
 ****
 33  36  37 0
 6-311+G(2d,p)
 ****
 1  2  13  14  15  16  17  18  19  20  21  23  24  26 0
 3-21G
 ****
 27  28  34  35  38  39  40  41  42  43  44  45  46  47  48 0
 3-21G
 ****


