%nproc=1
%NoSave
%Mem=1900MB
#P OB98/GEN NMR

erre ene a

0 1
  C     -121.112     179.202     646.306
  O     -121.481     179.436     647.666
  P     -122.312     180.781     647.955
  C     -124.744     181.600     647.551
  O     -123.745     180.645     647.234
  C     -126.114     181.140     647.043
  O     -126.151     181.020     645.606
  C     -126.534     179.783     647.586
  O     -127.035     179.918     648.905
  C     -127.596     179.358     646.578
  O     -128.887     179.931     646.907
  C     -127.071     179.949     645.259
  N     -127.465     177.196     641.020
  C     -128.424     177.944     641.680
  N     -129.648     177.986     641.117
  N     -128.189     178.594     642.791
  C     -126.916     178.464     643.237
  C     -125.879     177.772     642.657
  C     -126.152     177.056     641.429
  O     -125.333     176.393     640.796
  N     -124.715     177.921     643.370
  C     -125.090     178.595     644.446
  N     -126.397     179.005     644.381
  O     -121.544     181.881     647.089
  O     -122.363     181.152     649.402
  H     -129.569     179.508     646.358
  H     -121.079     182.506     647.679
  H     -127.704     176.706     640.170
  H     -124.443     178.840     645.280
  H     -127.883     180.397     644.668
  H     -127.741     178.275     646.565
  H     -129.897     177.515     640.264
  H     -125.684     179.084     647.555
  H     -130.361     178.540     641.583
  H     -126.848     181.900     647.342
  H     -124.494     182.568     647.108
  H     -124.761     181.747     648.635
  P     -126.285     179.125     650.079
  C     -123.775     178.447     650.005
  O     -124.729     179.495     649.988
  O     -126.351     177.599     649.585
  O     -126.901     179.284     651.430
  H     -126.591     177.026     650.339
  H     -122.895     178.756     649.439
  H     -124.179     177.524     649.570
  H     -123.481     178.251     651.045
  H     -120.567     178.284     646.237
  H     -120.499     180.008     645.959
  H     -121.994     179.139     645.703

 3  4  5  6  7  8  9  10  11  12  23  26  30  31 0
 6-311+G(2d,p)
 ****
 33  35  36  37  38 0
 6-311+G(2d,p)
 ****
 1  2  13  14  15  16  17  18  19  20  21  22  24  25 0
 3-21G
 ****
 27  28  29  32  34  39  40  41  42  43  44  45  46  47  48  49 0
 3-21G
 ****


