%nproc=1
%NoSave
%Mem=1900MB
#P OB98/GEN NMR

erre ene a

0 1
  C       44.202    -819.264     197.057
  O       44.408    -817.848     197.159
  P       44.101    -817.007     198.489
  C       46.271    -815.676     198.937
  O       44.930    -815.634     198.453
  C       46.983    -814.333     198.728
  O       46.922    -813.930     197.353
  C       46.395    -813.167     199.522
  O       46.765    -813.246     200.894
  C       46.980    -811.979     198.768
  O       48.323    -811.699     199.199
  C       46.964    -812.489     197.313
  N       45.846    -811.939     196.542
  C       46.125    -810.805     195.774
  O       47.242    -810.277     195.804
  N       45.111    -810.275     194.991
  C       43.925    -810.786     195.049
  N       42.969    -810.228     194.260
  C       43.566    -811.929     195.918
  C       44.580    -812.450     196.631
  O       44.276    -817.791     199.754
  O       42.575    -816.531     198.338
  H       48.629    -810.938     198.675
  H       42.173    -816.465     199.221
  H       42.562    -812.316     195.956
  H       44.403    -813.292     197.281
  H       47.903    -812.225     196.805
  H       46.399    -811.061     198.917
  H       45.302    -813.171     199.420
  H       48.041    -814.479     198.992
  H       43.243    -809.447     193.678
  H       46.808    -816.457     198.382
  H       42.016    -810.550     194.226
  H       46.260    -815.945     199.996
  P       45.676    -812.948     202.032
  C       46.347    -815.192     203.082
  O       46.059    -813.816     203.312
  O       44.245    -813.048     201.593
  O       46.029    -811.451     202.495
  H       45.206    -811.011     202.780
  H       46.962    -815.558     203.909
  H       46.894    -815.320     202.140
  H       45.419    -815.753     203.053
  H       44.477    -819.595     196.077
  H       43.171    -819.488     197.232
  H       44.805    -819.765     197.785

 3  4  5  6  7  8  9  10  11  12  13  23  27  28  29  30  32 0
 6-311+G(2d,p)
 ****
 34  35 0
 6-311+G(2d,p)
 ****
 1  2  14  15  16  17  18  19  20  21  22  24  25  26 0
 3-21G
 ****
 31  33  36  37  38  39  40  41  42  43  44  45  46 0
 3-21G
 ****


