%nproc=1
%NoSave
%Mem=1900MB
#P OB98/GEN NMR

erre ene a

0 1
  C     -476.858     720.227    -827.906
  O     -478.147     720.780    -827.748
  P     -478.521     722.229    -828.316
  C     -479.766     721.018    -830.221
  O     -478.773     721.999    -829.886
  C     -481.141     721.702    -830.296
  O     -481.033     722.860    -831.155
  C     -482.253     720.848    -830.933
  O     -482.886     719.959    -830.026
  C     -483.234     721.936    -831.361
  O     -483.986     722.393    -830.205
  C     -482.294     723.048    -831.840
  N     -484.602     722.802    -836.396
  C     -485.091     722.855    -835.132
  N     -484.407     722.902    -833.971
  C     -483.093     722.937    -834.202
  C     -482.441     722.889    -835.430
  C     -483.272     722.814    -836.563
  N     -482.763     722.780    -837.854
  N     -481.082     722.919    -835.255
  C     -480.899     723.004    -833.948
  N     -482.084     723.011    -833.273
  O     -477.540     723.292    -827.978
  O     -479.985     722.524    -827.748
  H     -484.408     723.239    -830.450
  H     -480.188     723.478    -827.815
  H     -486.188     722.859    -835.045
  H     -479.933     723.027    -833.475
  H     -482.664     724.055    -831.572
  H     -483.966     721.603    -832.085
  H     -481.899     720.322    -831.828
  H     -481.429     722.033    -829.304
  H     -479.789     720.271    -829.431
  H     -483.430     722.872    -838.598
  H     -481.786     722.974    -837.984
  H     -479.506     720.539    -831.165
  P     -483.768     718.756    -830.650
  C     -481.952     716.994    -829.983
  O     -482.691     717.617    -831.011
  O     -484.665     719.158    -831.774
  O     -484.534     718.172    -829.380
  H     -483.970     717.737    -828.715
  H     -481.402     716.144    -830.391
  H     -482.601     716.635    -829.176
  H     -481.217     717.694    -829.561
  H     -476.828     719.258    -827.454
  H     -476.137     720.862    -827.435
  H     -476.632     720.142    -828.948

 3  4  5  6  7  8  9  10  11  12  22  25  29  30  31  32 0
 6-311+G(2d,p)
 ****
 33  36  37 0
 6-311+G(2d,p)
 ****
 1  2  13  14  15  16  17  18  19  20  21  23  24  26 0
 3-21G
 ****
 27  28  34  35  38  39  40  41  42  43  44  45  46  47  48 0
 3-21G
 ****


