%nproc=1
%NoSave
%Mem=1900MB
#P OB98/GEN NMR

erre ene a

0 1
  C      688.939     441.129    -690.808
  O      689.053     441.322    -692.205
  H      689.308     440.130    -690.562
  H      687.891     441.202    -690.503
  H      689.535     441.872    -690.273
  P      688.593     442.755    -692.765
  C      690.055     442.959    -694.915
  O      688.777     442.681    -694.356
  C      690.904     441.679    -694.951
  O      690.226     440.693    -695.781
  C      692.309     441.889    -695.544
  O      693.207     440.954    -694.933
  C      692.086     441.493    -696.998
  O      693.316     441.249    -697.635
  C      691.168     440.290    -696.797
  N      690.168     436.391    -699.931
  C      690.820     436.459    -698.748
  N      691.039     437.536    -697.970
  C      690.472     438.630    -698.513
  C      689.779     438.720    -699.704
  C      689.635     437.531    -700.438
  N      688.990     437.465    -701.652
  N      689.373     440.022    -699.933
  C      689.807     440.705    -698.892
  N      690.479     439.904    -698.005
  O      689.769     443.728    -692.289
  O      687.254     443.227    -692.310
  H      693.883     442.044    -697.618
  H      689.542     444.131    -691.428
  H      691.224     435.514    -698.385
  H      689.682     441.768    -698.733
  H      691.708     439.410    -696.429
  H      691.577     442.292    -697.551
  H      692.687     442.902    -695.415
  H      690.957     441.257    -693.939
  H      690.546     443.720    -694.299
  H      689.932     443.335    -695.934
  H      688.954     436.577    -702.128
  H      688.618     438.312    -702.061
  P      694.081     441.423    -693.667
  C      693.965     439.485    -691.913
  O      694.713     440.151    -692.922
  O      692.943     441.885    -692.633
  O      695.031     442.549    -693.925
  H      693.185     442.739    -692.239
  H      694.536     438.666    -691.528
  H      693.051     439.117    -692.331
  H      693.745     440.170    -691.121

 6  7  8  9  10  11  12  13  14  15  25  28  32  33  34  35 0
 6-311+G(2d,p)
 ****
 36  37  40 0
 6-311+G(2d,p)
 ****
 1  2  3  4  5  16  17  18  19  20  21  22  23  24 0
 3-21G
 ****
 26  27  29  30  31  38  39 41  42  43  44  45  46  47  48 0
 3-21G
 ****


