%nproc=1
%NoSave
%Mem=1900MB
#P OB98/GEN NMR

erre ene a

0 1
  C      165.253     316.464     381.589
  O      166.367     315.622     381.828
  H      164.729     316.107     380.700
  H      165.587     317.491     381.418
  H      164.570     316.432     382.443
  P      167.339     316.045     383.035
  C      168.809     317.382     381.340
  O      168.010     317.411     382.512
  C      169.133     318.798     380.890
  O      167.970     319.436     380.312
  C      169.583     319.731     382.012
  O      170.934     319.521     382.409
  C      169.401     321.076     381.332
  O      170.458     321.286     380.378
  C      168.038     320.856     380.626
  N      166.895     321.262     381.443
  C      166.722     322.641     381.642
  O      167.504     323.447     381.147
  N      165.680     323.062     382.430
  C      164.865     322.198     382.953
  N      163.853     322.683     383.725
  C      165.002     320.745     382.763
  C      166.026     320.348     382.006
  O      168.540     314.995     382.924
  O      166.709     316.128     384.385
  H      171.287     321.319     380.881
  H      169.276     315.260     383.535
  H      164.308     320.058     383.230
  H      166.193     319.292     381.822
  H      168.007     321.401     379.673
  H      169.421     321.919     382.025
  H      168.911     319.673     382.876
  H      169.896     318.736     380.101
  H      163.822     323.678     383.888
  H      168.240     316.858     380.553
  H      163.267     322.089     384.294
  H      169.732     316.832     381.525
  P      171.304     319.835     383.944
  C      172.426     322.125     383.401
  O      171.386     321.426     384.083
  O      172.833     319.374     384.046
  O      170.439     319.144     384.950
  H      173.028     319.005     384.927
  H      172.339     323.173     383.597
  H      172.342     321.951     382.349
  H      173.377     321.775     383.746

 6  7  8  9  10  11  12  13  14  15  16  26  30  31  32  33  35 0
 6-311+G(2d,p)
 ****
 37  38 0
 6-311+G(2d,p)
 ****
 1  2  3  4  5  17  18  19  20  21  22  23  24  25 0
 3-21G
 ****
 27  28  29  34  36  39  40  41  42  43  44  45  46 0
 3-21G
 ****


