%nproc=1
%NoSave
%Mem=1900MB
#P OB98/GEN NMR

erre ene a

0 1
  C       21.147    -302.751    -312.623
  O       20.100    -303.223    -311.787
  H       21.980    -303.461    -312.565
  H       21.499    -301.781    -312.274
  H       20.811    -302.681    -313.659
  P       18.718    -302.413    -311.760
  C       17.491    -304.312    -312.995
  O       17.850    -302.937    -313.015
  C       15.986    -304.461    -312.797
  O       15.300    -303.878    -313.934
  C       15.523    -305.928    -312.679
  O       14.469    -305.996    -311.712
  C       14.976    -306.238    -314.060
  O       13.991    -307.272    -314.028
  C       14.424    -304.875    -314.491
  N       12.468    -306.898    -318.692
  C       12.258    -307.222    -317.357
  N       11.422    -308.259    -317.113
  N       12.822    -306.588    -316.368
  C       13.622    -305.571    -316.766
  C       13.909    -305.153    -318.044
  C       13.296    -305.870    -319.131
  O       13.450    -305.628    -320.328
  N       14.797    -304.091    -318.031
  C       15.038    -303.875    -316.751
  N       14.358    -304.754    -315.946
  O       18.839    -300.925    -311.670
  O       17.939    -303.021    -310.494
  H       13.784    -307.505    -314.968
  H       18.021    -302.436    -309.727
  H       12.014    -307.426    -319.414
  H       15.689    -303.118    -316.354
  H       13.409    -304.709    -314.113
  H       15.787    -306.565    -314.720
  H       10.938    -308.777    -317.831
  H       16.332    -306.606    -312.393
  H       11.234    -308.501    -316.143
  H       15.685    -303.891    -311.913
  H       18.028    -304.800    -312.167
  H       17.796    -304.780    -313.939
  P       14.761    -306.694    -310.301
  C       15.216    -304.628    -308.842
  O       15.779    -305.774    -309.478
  O       15.117    -308.146    -310.362
  O       13.377    -306.487    -309.509
  H       13.254    -307.234    -308.887
  H       15.985    -304.093    -308.326
  H       14.468    -304.939    -308.144
  H       14.773    -303.992    -309.580

 6  7  8  9  10  11  12  13  14  15  26  29  33  34 0
 6-311+G(2d,p)
 ****
 36  38  39  40  41 0
 6-311+G(2d,p)
 ****
 1  2  3  4  5  16  17  18  19  20  21  22  23  24  25 0
 3-21G
 ****
 27  28  30  31  32  35  37  42  43  44  45  46  47 0
 3-21G
 ****
 48  49 0
 3-21G
 ****


