%nproc=1
%NoSave
%Mem=1900MB
#P OB98/GEN NMR

erre ene a

0 1
  C       -8.237     343.602    -117.348
  O       -9.625     343.850    -117.486
  P      -10.627     342.613    -117.264
  C      -11.276     342.720    -119.783
  O      -10.820     341.922    -118.698
  C      -10.518     342.368    -121.059
  O       -9.092     342.409    -120.834
  C      -10.798     340.967    -121.585
  O      -12.005     340.899    -122.326
  C       -9.600     340.749    -122.495
  O       -9.813     341.410    -123.756
  C       -8.471     341.436    -121.714
  N       -4.066     338.957    -121.444
  C       -4.458     339.980    -122.288
  N       -3.567     340.355    -123.232
  N       -5.614     340.586    -122.214
  C       -6.408     340.104    -121.226
  C       -6.131     339.097    -120.325
  C       -4.849     338.426    -120.429
  O       -4.468     337.480    -119.745
  N       -7.179     338.890    -119.464
  C       -8.088     339.773    -119.839
  N       -7.685     340.500    -120.930
  O      -12.041     343.327    -117.012
  O      -10.249     341.697    -116.147
  H       -9.036     341.210    -124.312
  H      -12.662     342.698    -116.597
  H       -3.168     338.519    -121.551
  H       -9.050     339.906    -119.365
  H       -7.792     341.984    -122.374
  H       -9.419     339.693    -122.714
  H       -2.684     339.886    -123.386
  H      -10.782     340.225    -120.774
  H       -3.850     341.057    -123.905
  H      -10.761     343.122    -121.820
  H      -11.118     343.774    -119.543
  H      -12.351     342.558    -119.924
  P      -13.245     340.149    -121.634
  C      -13.518     338.334    -123.472
  O      -13.155     338.630    -122.136
  O      -14.510     340.740    -122.413
  O      -13.340     340.350    -120.158
  H      -15.304     340.700    -121.853
  H      -13.153     337.328    -123.721
  H      -13.083     339.047    -124.171
  H      -14.612     338.342    -123.568
  H       -7.694     344.507    -117.522
  H       -7.934     342.862    -118.060
  H       -8.034     343.249    -116.358

 3  4  5  6  7  8  9  10  11  12  23  26  30  31 0
 6-311+G(2d,p)
 ****
 33  35  36  37  38 0
 6-311+G(2d,p)
 ****
 1  2  13  14  15  16  17  18  19  20  21  22  24  25 0
 3-21G
 ****
 27  28  29  32  34  39  40  41  42  43  44  45  46  47  48  49 0
 3-21G
 ****


