%nproc=1
%NoSave
%Mem=1900MB
#P OB98/GEN NMR

erre ene a

0 1
  C      609.063    -249.757     195.466
  O      608.389    -250.349     194.338
  P      609.141    -251.495     193.491
  C      607.399    -253.420     193.838
  O      608.717    -252.931     194.070
  C      607.098    -254.585     194.784
  O      607.483    -254.255     196.139
  C      605.625    -254.962     194.870
  O      605.203    -255.700     193.738
  C      605.591    -255.761     196.168
  O      605.998    -257.123     195.944
  C      606.636    -255.016     197.028
  N      606.024    -254.163     198.044
  C      606.301    -254.488     199.368
  O      606.971    -255.469     199.697
  N      605.749    -253.666     200.314
  C      604.910    -252.617     200.074
  O      604.429    -251.925     200.965
  C      604.589    -252.369     198.654
  C      605.148    -253.149     197.725
  O      610.650    -251.359     194.018
  O      609.080    -251.342     192.002
  H      606.784    -257.089     195.364
  H      611.267    -251.653     193.319
  H      605.963    -253.868     201.282
  H      603.908    -251.562     198.429
  H      604.918    -252.977     196.676
  H      607.294    -255.736     197.526
  H      604.595    -255.791     196.613
  H      605.019    -254.053     194.992
  H      607.698    -255.448     194.466
  H      607.324    -253.770     192.803
  H      606.687    -252.602     193.985
  P      604.746    -254.855     192.450
  C      606.861    -255.504     191.060
  O      606.101    -254.486     191.680
  O      604.272    -253.483     193.137
  O      603.690    -255.541     191.640
  H      604.800    -253.271     193.931
  H      606.227    -256.304     190.671
  H      607.568    -255.922     191.789
  H      607.429    -255.064     190.239
  H      608.429    -249.020     195.913
  H      609.970    -249.295     195.137
  H      609.290    -250.516     196.185

 3  4  5  6  7  8  9  10  11  12  13  23  28  29  30  31  32 0
 6-311+G(2d,p)
 ****
 33  34 0
 6-311+G(2d,p)
 ****
 1  2  14  15  16  17  18  19  20  21  22  24  25  26 0
 3-21G
 ****
 27  35  36  37  38  39  40  41  42  43  44  45 0
 3-21G
 ****


