%nproc=1
%NoSave
%Mem=1900MB
#P OB98/GEN NMR

erre ene a

0 1
  C     -480.692    -199.733    -428.127
  O     -479.875    -200.459    -427.226
  H     -480.927    -200.372    -428.981
  H     -480.150    -198.852    -428.484
  H     -481.626    -199.427    -427.646
  P     -479.686    -199.834    -425.761
  C     -478.004    -197.916    -425.278
  O     -479.172    -198.323    -425.972
  C     -477.516    -196.568    -425.806
  O     -477.001    -196.705    -427.148
  C     -478.598    -195.495    -425.872
  O     -478.780    -194.855    -424.612
  C     -477.987    -194.540    -426.884
  O     -476.956    -193.752    -426.251
  C     -477.358    -195.510    -427.898
  N     -477.651    -196.260    -432.908
  C     -476.592    -195.813    -432.141
  N     -475.449    -195.517    -432.802
  N     -476.644    -195.669    -430.837
  C     -477.855    -195.979    -430.319
  C     -478.982    -196.425    -430.972
  C     -478.904    -196.600    -432.407
  O     -479.806    -197.006    -433.132
  N     -480.024    -196.634    -430.103
  C     -479.537    -196.295    -428.925
  N     -478.224    -195.885    -428.999
  O     -478.393    -200.604    -425.213
  O     -480.845    -200.002    -424.839
  H     -476.601    -193.146    -426.929
  H     -478.676    -201.299    -424.591
  H     -477.560    -196.352    -433.906
  H     -480.080    -196.333    -427.993
  H     -476.437    -195.108    -428.338
  H     -478.712    -193.837    -427.296
  H     -475.352    -195.586    -433.806
  H     -479.546    -195.891    -426.264
  H     -474.664    -195.189    -432.258
  H     -476.682    -196.236    -425.171
  H     -477.219    -198.667    -425.423
  H     -478.228    -197.836    -424.205
  P     -479.676    -193.527    -424.560
  C     -479.302    -191.010    -425.056
  O     -478.759    -192.315    -425.088
  O     -479.794    -193.248    -422.987
  O     -481.022    -193.641    -425.193
  H     -480.715    -193.401    -422.689
  H     -478.582    -190.315    -425.435
  H     -479.551    -190.752    -424.048
  H     -480.184    -190.976    -425.661

 6  7  8  9  10  11  12  13  14  15  26  29  33  34 0
 6-311+G(2d,p)
 ****
 36  38  39  40  41 0
 6-311+G(2d,p)
 ****
 1  2  3  4  5  16  17  18  19  20  21  22  23  24  25 0
 3-21G
 ****
 27  28  30  31  32  35  37  42  43  44  45  46  47 0
 3-21G
 ****
 48  49 0
 3-21G
 ****


