%nproc=1
%NoSave
%Mem=1900MB
#P OB98/GEN NMR

erre ene a

0 1
  C     -303.360    -520.770      79.506
  O     -301.994    -520.445      79.218
  P     -300.868    -521.549      78.922
  C     -299.500    -520.658      76.926
  O     -299.557    -520.830      78.335
  C     -300.089    -519.311      76.493
  O     -299.299    -518.214      77.049
  C     -300.142    -519.105      74.967
  O     -301.370    -518.416      74.690
  C     -298.938    -518.211      74.724
  O     -298.971    -517.526      73.486
  C     -299.029    -517.307      75.958
  N     -297.846    -516.505      76.238
  C     -297.389    -515.646      75.226
  O     -297.927    -515.609      74.124
  N     -296.300    -514.849      75.490
  C     -295.712    -514.903      76.645
  N     -294.647    -514.079      76.838
  C     -296.145    -515.804      77.725
  C     -297.208    -516.562      77.456
  O     -301.350    -522.683      78.075
  O     -300.401    -522.082      80.360
  H     -300.199    -523.034      80.298
  H     -299.819    -517.049      73.429
  H     -295.635    -515.812      78.674
  H     -297.608    -517.235      78.213
  H     -299.904    -516.653      75.864
  H     -298.034    -518.829      74.737
  H     -300.128    -520.039      74.395
  H     -301.092    -519.224      76.924
  H     -294.384    -513.468      76.074
  H     -300.076    -521.460      76.455
  H     -294.123    -514.034      77.700
  H     -298.459    -520.743      76.597
  P     -302.331    -518.948      73.523
  C     -304.675    -518.872      74.650
  O     -303.773    -518.282      73.740
  O     -302.598    -520.465      73.980
  O     -301.770    -518.919      72.139
  H     -302.816    -521.000      73.194
  H     -305.130    -518.084      75.257
  H     -304.189    -519.586      75.319
  H     -305.463    -519.386      74.093
  H     -303.915    -519.869      79.667
  H     -303.404    -521.378      80.385
  H     -303.781    -521.305      78.681

 3  4  5  6  7  8  9  10  11  12  13  24  27  28  29  30  32 0
 6-311+G(2d,p)
 ****
 34  35 0
 6-311+G(2d,p)
 ****
 1  2  14  15  16  17  18  19  20  21  22  23  25  26 0
 3-21G
 ****
 31  33  36  37  38  39  40  41  42  43  44  45  46 0
 3-21G
 ****


