%nproc=1
%NoSave
%Mem=1900MB
#P OB98/GEN NMR

erre ene a

0 1
  C     -858.701      14.252    -898.080
  O     -859.526      15.391    -898.170
  H     -859.277      13.425    -897.630
  H     -857.832      14.447    -897.440
  H     -858.371      13.949    -899.080
  P     -858.820      16.738    -898.680
  C     -856.993      18.276    -897.620
  O     -857.889      17.185    -897.450
  C     -857.065      19.210    -896.420
  O     -856.522      18.553    -895.240
  C     -856.287      20.516    -896.550
  O     -856.936      21.472    -897.370
  C     -856.224      20.932    -895.110
  O     -857.508      21.453    -894.690
  C     -855.917      19.589    -894.400
  N     -854.485      19.333    -894.260
  C     -853.741      20.287    -893.540
  O     -854.308      21.265    -893.050
  N     -852.397      20.101    -893.390
  C     -851.818      19.049    -893.900
  N     -850.484      18.930    -893.740
  C     -852.555      18.019    -894.670
  C     -853.879      18.227    -894.800
  O     -860.008      17.824    -898.650
  O     -858.107      16.641    -900.000
  H     -857.485      21.487    -893.710
  H     -859.637      18.721    -898.810
  H     -852.024      17.163    -895.080
  H     -854.463      17.496    -895.330
  H     -856.392      19.540    -893.430
  H     -855.493      21.714    -894.920
  H     -855.273      20.300    -896.920
  H     -858.140      19.415    -896.210
  H     -849.988      19.694    -893.270
  H     -857.281      18.816    -898.530
  H     -849.919      18.235    -894.220
  H     -855.966      17.913    -897.730
  P     -856.046      22.707    -897.900
  C     -854.591      24.505    -896.730
  O     -855.643      23.568    -896.600
  O     -857.134      23.629    -898.660
  O     -854.901      22.317    -898.800
  H     -856.708      24.073    -899.420
  H     -854.436      24.999    -895.794
  H     -854.847      25.228    -897.476
  H     -853.695      23.997    -897.018

 6  7  8  9  10  11  12  13  14  15  16  26  30  31  32  33  35 0
 6-311+G(2d,p)
 ****
 37  38 0
 6-311+G(2d,p)
 ****
 1  2  3  4  5  17  18  19  20  21  22  23  24  25 0
 3-21G
 ****
 27  28  29  34  36  39  40  41  42  43  44  45  46 0
 3-21G
 ****


