%nproc=1
%NoSave
%Mem=1900MB
#P OB98/GEN NMR

erre ene a

0 1
  C      558.132     -53.107     300.092
  O      557.823     -52.262     301.206
  P      558.632     -52.549     302.570
  C      556.454     -51.993     303.886
  O      557.855     -51.789     303.755
  C      555.863     -51.044     304.924
  O      556.360     -51.340     306.244
  C      556.205     -49.574     304.702
  O      555.386     -48.992     303.696
  C      555.899     -48.983     306.065
  O      554.489     -48.713     306.176
  C      556.311     -50.121     307.023
  N      558.883     -49.879     311.381
  C      557.539     -50.104     311.157
  N      556.776     -50.330     312.257
  N      556.989     -50.114     309.969
  C      557.882     -49.902     308.967
  C      559.229     -49.668     309.060
  C      559.822     -49.629     310.383
  O      560.999     -49.403     310.640
  N      559.801     -49.514     307.821
  C      558.800     -49.686     306.983
  N      557.610     -49.916     307.626
  O      559.964     -51.678     302.383
  O      558.933     -53.990     302.807
  H      554.239     -48.201     305.377
  H      560.691     -52.069     302.904
  H      559.254     -49.871     312.318
  H      558.886     -49.659     305.901
  H      555.575     -50.270     307.817
  H      556.418     -48.034     306.240
  H      557.148     -50.407     313.189
  H      557.280     -49.453     304.473
  H      555.795     -50.532     312.104
  H      554.768     -51.172     304.927
  H      556.255     -53.024     304.187
  H      555.979     -51.852     302.907
  P      556.046     -48.754     302.254
  C      555.089     -46.401     301.711
  O      555.027     -47.801     301.469
  O      555.875     -50.175     301.536
  O      557.479     -48.313     302.283
  H      556.585     -50.316     300.878
  H      556.120     -46.049     301.752
  H      554.579     -46.181     302.656
  H      554.563     -45.877     300.897
  H      557.535     -52.821     299.251
  H      557.923     -54.125     300.348
  H      559.168     -53.007     299.845

 3  4  5  6  7  8  9  10  11  12  23  26  30  31  33  0
 6-311+G(2d,p)
 ****
 35  36  37  38 0
 6-311+G(2d,p)
 ****
 1  2  13  14  15  16  17  18  19  20  21  22  24  25  27  28  29 0
 3-21G
 ****
 32  34  39  40  41  42  43  44  45  46  47  48  49 0
 3-21G
 ****


