%nproc=1
%NoSave
%Mem=1900MB
#P OB98/GEN NMR

erre ene a

0 1
  C     -397.600     117.137     211.282
  O     -398.792     117.738     210.814
  H     -397.655     117.045     212.369
  H     -396.738     117.761     211.025
  H     -397.484     116.140     210.846
  P     -398.875     118.018     209.237
  C     -397.756     119.686     207.597
  O     -397.832     119.199     208.930
  C     -396.741     120.822     207.500
  O     -397.216     121.991     208.201
  C     -395.369     120.490     208.076
  O     -394.577     119.794     207.130
  C     -394.834     121.884     208.381
  O     -394.323     122.517     207.188
  C     -396.089     122.606     208.886
  N     -395.899     125.269     213.171
  C     -395.548     125.623     211.887
  N     -395.044     126.870     211.716
  N     -395.668     124.832     210.855
  C     -396.128     123.600     211.178
  C     -396.509     123.125     212.414
  C     -396.422     124.033     213.536
  O     -396.795     123.805     214.685
  N     -396.945     121.826     212.333
  C     -396.791     121.510     211.060
  N     -396.297     122.552     210.322
  O     -400.300     118.729     209.058
  O     -398.763     116.813     208.365
  H     -393.994     123.403     207.410
  H     -400.703     118.420     208.225
  H     -395.813     125.930     213.923
  H     -397.036     120.547     210.629
  H     -396.088     123.668     208.611
  H     -394.001     121.846     209.087
  H     -394.666     127.400     212.485
  H     -395.460     119.923     209.010
  H     -394.719     127.100     210.788
  H     -396.656     121.097     206.441
  H     -398.743     120.051     207.296
  H     -397.460     118.869     206.933
  P     -393.956     118.379     207.554
  C     -391.840     117.541     208.806
  O     -392.603     118.661     208.377
  O     -393.430     117.786     206.162
  O     -394.920     117.445     208.203
  H     -394.032     117.081     205.856
  H     -390.975     117.881     209.336
  H     -391.535     116.970     207.954
  H     -392.436     116.929     209.450

 6  7  8  9  10  11  12  13  14  15  26  29  33  34 0
 6-311+G(2d,p)
 ****
 36  38  39  40  41 0
 6-311+G(2d,p)
 ****
 1  2  3  4  5  16  17  18  19  20  21  22  23  24  25 0
 3-21G
 ****
 27  28  30  31  32  35  37  42  43  44  45  46  47 0
 3-21G
 ****
 48  49 0
 3-21G
 ****


