%nproc=1
%NoSave
%Mem=1900MB
#P OB98/GEN NMR

erre ene a

0 1
  C     -556.273     -18.306    -629.561
  O     -557.574     -17.797    -629.304
  P     -558.662     -17.678    -630.479
  C     -558.372     -15.120    -630.474
  O     -558.298     -16.319    -631.245
  C     -557.987     -13.922    -631.328
  O     -556.738     -14.222    -631.997
  C     -558.955     -13.556    -632.455
  O     -560.043     -12.735    -632.050
  C     -558.043     -12.758    -633.375
  O     -557.877     -11.430    -632.852
  C     -556.725     -13.533    -633.278
  N     -555.054     -14.274    -638.055
  C     -555.037     -13.187    -637.248
  N     -555.522     -13.068    -635.993
  C     -556.022     -14.235    -635.568
  C     -556.106     -15.424    -636.275
  C     -555.587     -15.424    -637.576
  N     -555.586     -16.537    -638.388
  N     -556.712     -16.405    -635.507
  C     -556.975     -15.814    -634.363
  N     -556.571     -14.509    -634.345
  O     -560.077     -17.810    -630.025
  O     -558.237     -18.811    -631.526
  H     -558.771     -11.072    -632.696
  H     -558.978     -18.995    -632.140
  H     -554.576     -12.294    -637.670
  H     -557.454     -16.292    -633.518
  H     -555.845     -12.876    -633.289
  H     -558.446     -12.658    -634.390
  H     -559.306     -14.454    -632.983
  H     -557.815     -13.062    -630.670
  H     -557.669     -15.207    -629.635
  H     -555.075     -16.480    -639.260
  H     -555.834     -17.427    -637.975
  H     -559.378     -15.005    -630.068
  P     -561.251     -12.549    -633.100
  C     -560.789      -9.988    -633.401
  O     -560.853     -11.272    -633.984
  O     -562.606     -12.505    -632.485
  O     -561.033     -13.776    -634.105
  H     -560.234     -13.731    -634.647
  H     -560.349      -9.294    -634.121
  H     -560.170      -9.992    -632.501
  H     -561.795      -9.643    -633.147
  H     -555.704     -18.304    -628.655
  H     -555.787     -17.691    -630.289
  H     -556.348     -19.307    -629.933

 3  4  5  6  7  8  9  10  11  12  22  25  29  30  31  32 0
 6-311+G(2d,p)
 ****
 33  36  37 0
 6-311+G(2d,p)
 ****
 1  2  13  14  15  16  17  18  19  20  21  23  24  26 0
 3-21G
 ****
 27  28  34  35  38  39  40  41  42  43  44  45  46  47  48 0
 3-21G
 ****


