%nproc=1
%NoSave
%Mem=1900MB
#P OB98/GEN NMR

erre ene a

0 1
  C       60.318    -206.918     163.191
  O       61.531    -206.752     162.468
  P       61.657    -205.480     161.490
  C       61.355    -206.870     159.327
  O       62.204    -206.024     160.079
  C       61.965    -207.184     157.954
  O       61.045    -208.046     157.224
  C       62.233    -205.959     157.076
  O       63.398    -206.244     156.292
  C       61.019    -205.907     156.164
  O       61.269    -205.162     154.977
  C       60.779    -207.404     155.949
  N       57.256    -206.533     152.340
  C       58.534    -206.120     152.468
  N       59.416    -206.389     153.461
  C       58.850    -207.180     154.389
  C       57.549    -207.657     154.409
  C       56.725    -207.305     153.324
  N       55.428    -207.738     153.186
  N       57.330    -208.424     155.545
  C       58.475    -208.407     156.196
  N       59.425    -207.688     155.513
  O       62.914    -204.692     162.101
  O       60.452    -204.605     161.421
  H       61.600    -204.281     155.236
  H       62.615    -203.852     162.499
  H       58.909    -205.478     151.662
  H       58.660    -208.883     157.141
  H       61.471    -207.830     155.206
  H       60.178    -205.449     156.693
  H       62.372    -205.027     157.640
  H       62.882    -207.759     158.112
  H       60.397    -206.356     159.170
  H       54.950    -207.556     152.318
  H       55.084    -208.467     153.816
  H       61.160    -207.794     159.878
  P       64.614    -205.204     156.386
  C       64.816    -204.797     153.828
  O       65.418    -205.299     155.007
  O       65.596    -205.878     157.458
  O       64.201    -203.822     156.808
  H       66.111    -205.187     157.913
  H       65.586    -204.394     153.170
  H       64.089    -204.006     154.049
  H       64.295    -205.616     153.319
  H       60.380    -207.799     163.794
  H       59.503    -207.013     162.504
  H       60.158    -206.067     163.819

 3  4  5  6  7  8  9  10  11  12  22  25  29  30  31  32 0
 6-311+G(2d,p)
 ****
 33  36  37 0
 6-311+G(2d,p)
 ****
 1  2  13  14  15  16  17  18  19  20  21  23  24  26 0
 3-21G
 ****
 27  28  34  35  38  39  40  41  42  43  44  45  46  47  48 0
 3-21G
 ****


