%nproc=1
%NoSave
%Mem=1900MB
#P OB98/GEN NMR

erre ene a

0 1
  C     -936.059     637.939    -541.801
  O     -934.796     638.549    -541.950
  H     -935.919     636.854    -541.744
  H     -936.689     638.166    -542.669
  H     -936.561     638.272    -540.890
  P     -934.677     640.131    -541.735
  C     -933.183     640.362    -539.645
  O     -934.505     640.380    -540.162
  C     -933.076     639.393    -538.457
  O     -933.420     638.058    -538.904
  C     -931.649     639.330    -537.906
  O     -931.620     638.999    -536.522
  C     -931.038     638.187    -538.703
  O     -929.913     637.591    -538.051
  C     -932.229     637.251    -538.852
  N     -931.598     632.539    -540.695
  C     -931.405     633.003    -539.408
  N     -930.997     632.098    -538.495
  N     -931.578     634.258    -539.058
  C     -931.919     635.065    -540.092
  C     -932.116     634.722    -541.410
  C     -931.956     633.329    -541.772
  O     -932.083     632.867    -542.909
  N     -932.442     635.819    -542.168
  C     -932.443     636.819    -541.314
  N     -932.153     636.410    -540.033
  O     -936.162     640.663    -542.010
  O     -933.676     640.829    -542.605
  H     -930.247     637.171    -537.232
  H     -936.148     641.609    -542.252
  H     -931.480     631.563    -540.906
  H     -932.654     637.852    -541.562
  H     -932.313     636.586    -537.982
  H     -930.683     638.585    -539.659
  H     -930.667     631.185    -538.763
  H     -931.097     640.253    -538.062
  H     -930.561     632.473    -537.643
  H     -933.808     639.668    -537.691
  H     -932.949     641.381    -539.333
  H     -932.473     640.088    -540.424
  P     -932.083     640.103    -535.458
  C     -934.231     639.091    -534.293
  O     -933.654     639.995    -535.216
  O     -931.920     641.483    -536.249
  O     -931.304     640.095    -534.182
  H     -931.229     642.036    -535.831
  H     -935.295     639.200    -534.305
  H     -933.862     639.300    -533.311
  H     -933.972     638.089    -534.565

 6  7  8  9  10  11  12  13  14  15  26  29  33  34 0
 6-311+G(2d,p)
 ****
 36  38  39  40  41 0
 6-311+G(2d,p)
 ****
 1  2  3  4  5  16  17  18  19  20  21  22  23  24  25 0
 3-21G
 ****
 27  28  30  31  32  35  37  42  43  44  45  46  47 0
 3-21G
 ****
 48  49 0
 3-21G
 ****


