%nproc=1
%NoSave
%Mem=1900MB
#P OB98/GEN NMR

erre ene a

0 1
  C       -7.645     319.465    -369.059
  O       -6.959     320.578    -369.629
  P       -6.805     321.889    -368.719
  C       -7.601     323.743    -370.398
  O       -6.531     323.132    -369.696
  C       -7.149     324.212    -371.792
  O       -5.963     325.039    -371.639
  C       -6.736     323.098    -372.751
  O       -6.755     323.614    -374.084
  C       -5.306     322.841    -372.336
  O       -4.585     322.139    -373.343
  C       -4.793     324.259    -372.011
  N       -3.799     324.292    -370.915
  C       -2.501     323.857    -371.184
  O       -2.138     323.432    -372.277
  N       -1.630     323.872    -370.128
  C       -1.902     324.313    -368.868
  O       -1.115     324.224    -367.931
  C       -3.237     324.897    -368.676
  C       -4.109     324.854    -369.685
  O       -5.403     321.667    -367.972
  O       -7.923     322.098    -367.760
  H       -3.631     322.172    -373.090
  H       -5.561     321.427    -367.036
  H       -0.710     323.487    -370.289
  H       -3.466     325.327    -367.710
  H       -5.109     325.265    -369.549
  H       -4.329     324.723    -372.886
  H       -5.291     322.222    -371.436
  H       -7.351     322.204    -372.697
  H       -7.927     324.840    -372.235
  H       -7.990     324.582    -369.825
  H       -8.421     323.026    -370.506
  P       -7.750     322.936    -375.148
  C       -6.559     323.186    -377.408
  O       -7.536     323.709    -376.529
  O       -9.170     322.769    -374.702
  O       -7.051     321.512    -375.428
  H       -7.700     320.898    -375.815
  H       -6.840     323.415    -378.435
  H       -6.462     322.101    -377.301
  H       -5.593     323.657    -377.186
  H       -7.676     318.664    -369.768
  H       -8.643     319.754    -368.804
  H       -7.131     319.142    -368.178

 3  4  5  6  7  8  9  10  11  12  13  23  28  29  30  31  32 0
 6-311+G(2d,p)
 ****
 33  34 0
 6-311+G(2d,p)
 ****
 1  2  14  15  16  17  18  19  20  21  22  24  25  26  27 0
 3-21G
 ****
 35  36  37  38  39  40  41  42  43  44  45 0
 3-21G
 ****


