%nproc=1
%NoSave
%Mem=1900MB
#P OB98/GEN NMR

erre ene a

0 1
  C       22.221     -25.003      87.338
  O       21.585     -23.929      86.665
  P       22.387     -23.029      85.616
  C       20.464     -22.738      83.852
  O       21.742     -23.242      84.173
  C       19.926     -23.489      82.627
  O       19.831     -24.899      82.911
  C       18.538     -22.992      82.230
  O       18.632     -21.999      81.221
  C       17.853     -24.263      81.766
  O       18.226     -24.570      80.410
  C       18.448     -25.310      82.736
  N       17.839     -25.445      84.073
  C       16.463     -25.613      84.188
  O       15.702     -25.688      83.229
  N       15.976     -25.668      85.470
  C       16.724     -25.618      86.610
  O       16.268     -25.425      87.731
  C       18.174     -25.716      86.418
  C       18.658     -25.603      85.182
  O       23.797     -23.775      85.504
  O       22.541     -21.592      85.988
  H       18.156     -23.744      79.899
  H       24.465     -23.335      86.062
  H       14.965     -25.648      85.562
  H       18.801     -25.822      87.293
  H       19.732     -25.634      85.020
  H       18.453     -26.307      82.282
  H       16.770     -24.149      81.764
  H       18.006     -22.608      83.110
  H       20.630     -23.359      81.796
  H       20.525     -21.664      83.646
  H       19.786     -22.865      84.702
  P       18.515     -20.454      81.620
  C       20.604     -19.669      80.362
  O       20.021     -19.904      81.627
  O       17.721     -20.165      82.851
  O       17.858     -19.788      80.319
  H       16.893     -19.687      80.450
  H       21.546     -19.135      80.503
  H       19.940     -19.062      79.739
  H       20.809     -20.622      79.867
  H       21.521     -25.478      87.993
  H       23.045     -24.628      87.909
  H       22.577     -25.713      86.621

 3  4  5  6  7  8  9  10  11  12  13  23  28  29  30  31  32 0
 6-311+G(2d,p)
 ****
 33  34 0
 6-311+G(2d,p)
 ****
 1  2  14  15  16  17  18  19  20  21  22  24  25  26  27 0
 3-21G
 ****
 35  36  37  38  39  40  41  42  43  44  45 0
 3-21G
 ****


