%nproc=1
%NoSave
%Mem=1900MB
#P OB98/GEN NMR

erre ene a

0 1
  C     -301.237    -227.152    -198.252
  O     -300.783    -226.985    -199.580
  H     -300.963    -228.154    -197.911
  H     -302.325    -227.051    -198.216
  H     -300.771    -226.414    -197.592
  P     -301.002    -225.541    -200.245
  C     -302.472    -226.199    -202.279
  O     -301.188    -225.794    -201.822
  C     -302.351    -227.061    -203.536
  O     -302.062    -228.436    -203.140
  C     -303.617    -227.090    -204.403
  O     -303.213    -227.169    -205.777
  C     -304.258    -228.417    -204.024
  O     -305.159    -228.898    -205.020
  C     -303.008    -229.274    -203.828
  N     -304.844    -233.942    -204.248
  C     -304.639    -232.963    -205.208
  N     -304.976    -233.282    -206.479
  N     -304.148    -231.785    -204.947
  C     -303.825    -231.618    -203.641
  C     -303.982    -232.496    -202.595
  C     -304.553    -233.794    -202.893
  O     -304.776    -234.689    -202.084
  N     -303.559    -231.940    -201.411
  C     -303.148    -230.728    -201.746
  N     -303.290    -230.484    -203.083
  O     -299.546    -224.881    -200.137
  O     -302.048    -224.693    -199.606
  H     -305.414    -229.813    -204.776
  H     -299.476    -224.348    -199.325
  H     -305.238    -234.831    -204.502
  H     -302.744    -229.994    -201.059
  H     -302.564    -229.582    -204.781
  H     -304.811    -228.312    -203.083
  H     -305.316    -234.187    -206.760
  H     -304.284    -226.233    -204.261
  H     -304.794    -232.598    -207.204
  H     -301.488    -226.713    -204.116
  H     -303.066    -225.308    -202.511
  H     -302.975    -226.766    -201.485
  P     -304.018    -226.296    -206.851
  C     -304.133    -228.058    -208.764
  O     -303.619    -226.815    -208.315
  O     -303.291    -224.871    -206.771
  O     -305.485    -226.188    -206.580
  H     -303.920    -224.166    -207.017
  H     -303.774    -228.256    -209.752
  H     -305.202    -228.019    -208.774
  H     -303.810    -228.836    -208.105

 6  7  8  9  10  11  12  13  14  15  26  29  33  34 0
 6-311+G(2d,p)
 ****
 36  38  39  40  41 0
 6-311+G(2d,p)
 ****
 1  2  3  4  5  16  17  18  19  20  21  22  23  24  25 0
 3-21G
 ****
 27  28  30  31  32  35  37  42  43  44  45  46  47 0
 3-21G
 ****
 48  49 0
 3-21G
 ****


