%nproc=1
%NoSave
%Mem=1900MB
#P OB98/GEN NMR

erre ene a

0 1
  C      259.412     540.216    -218.428
  O      258.080     540.456    -218.846
  H      259.731     539.219    -218.749
  H      260.069     540.962    -218.883
  H      259.484     540.293    -217.337
  P      256.945     539.474    -218.285
  C      255.317     541.175    -217.183
  O      256.342     540.203    -216.988
  C      254.993     541.839    -215.845
  O      256.129     542.598    -215.371
  C      253.837     542.831    -215.903
  O      252.568     542.196    -215.854
  C      254.093     543.646    -214.643
  O      253.661     542.901    -213.487
  C      255.628     543.765    -214.662
  N      257.970     548.264    -213.966
  C      257.610     547.289    -213.095
  N      256.986     546.125    -213.362
  C      256.732     546.008    -214.677
  C      257.021     546.921    -215.680
  C      257.687     548.100    -215.275
  N      258.036     549.112    -216.161
  N      256.567     546.470    -216.906
  C      256.043     545.297    -216.653
  N      256.109     544.972    -215.326
  O      257.790     538.253    -217.654
  O      255.933     539.017    -219.275
  H      254.079     542.021    -213.546
  H      257.219     537.467    -217.583
  H      257.850     547.473    -212.055
  H      255.613     544.632    -217.394
  H      256.057     543.748    -213.650
  H      253.564     544.602    -214.630
  H      253.917     543.501    -216.778
  H      254.786     541.045    -215.104
  H      254.421     540.684    -217.571
  H      258.336     549.979    -215.747
  H      257.690     549.059    -217.104
  H      255.662     541.918    -217.903
  P      251.449     542.690    -216.896
  C      250.490     540.656    -218.231
  O      251.515     541.657    -218.137
  O      252.078     544.018    -217.502
  O      250.097     542.899    -216.304
  H      251.378     544.626    -217.817
  H      250.662     540.049    -219.095
  H      249.534     541.131    -218.313
  H      250.510     540.042    -217.355

 6  7  8  9  10  11  12  13  14  15  25  28  32  33  34  35 0
 6-311+G(2d,p)
 ****
 36  39  40 0
 6-311+G(2d,p)
 ****
 1  2  3  4  5  16  17  18  19  20  21  22  23  24 0
 3-21G
 ****
 26  27  29  30  31  37  38  41  42  43  44  45  46  47 0
 3-21G
 ****
 48 0
 3-21G
 ****


