%nproc=1
%NoSave
%Mem=1900MB
#P OB98/GEN NMR

erre ene a

0 1
  C      102.828     -62.195     137.315
  O      102.749     -63.098     138.402
  H      102.598     -62.734     136.394
  H      103.839     -61.783     137.243
  H      102.104     -61.386     137.442
  P      103.041     -62.490     139.856
  C      104.253     -64.721     140.450
  O      103.288     -63.747     140.821
  C      103.840     -66.105     140.961
  O      102.909     -66.697     140.008
  C      105.011     -67.091     141.107
  O      104.680     -68.019     142.153
  C      104.983     -67.804     139.765
  O      105.765     -68.975     139.798
  C      103.474     -67.962     139.596
  N      102.469     -71.733     136.293
  C      102.785     -71.749     137.606
  N      103.027     -70.704     138.423
  C      102.892     -69.542     137.760
  C      102.567     -69.367     136.425
  C      102.352     -70.536     135.672
  N      102.038     -70.524     134.334
  N      102.527     -68.022     136.103
  C      102.823     -67.399     137.227
  N      103.060     -68.275     138.249
  O      101.613     -61.931     140.315
  O      104.098     -61.438     139.913
  H      106.669     -68.781     140.128
  H      101.548     -60.980     140.111
  H      102.857     -72.734     138.062
  H      102.890     -66.324     137.351
  H      103.069     -68.737     140.258
  H      105.400     -67.169     138.977
  H      105.962     -66.604     141.339
  H      103.294     -65.991     141.905
  H      105.217     -64.436     140.886
  H      104.345     -64.747     139.360
  H      101.915     -71.406     133.863
  H      101.965     -69.638     133.854
  P      105.754     -68.305     143.317
  C      105.443     -70.885     143.620
  O      105.272     -69.582     144.158
  O      105.461     -67.103     144.340
  O      107.185     -68.299     142.893
  H      106.275     -66.890     144.834
  H      105.067     -71.609     144.313
  H      106.483     -71.065     143.445
  H      104.907     -70.963     142.697

 6  7  8  9  10  11  12  13  14  15  25  28  32  33  34  35 0
 6-311+G(2d,p)
 ****
 36  37  40 0
 6-311+G(2d,p)
 ****
 1  2  3  4  5  16  17  18  19  20  21  22  23  24 0
 3-21G
 ****
 26  27  29  30  31  38  39 41  42  43  44  45  46  47  48 0
 3-21G
 ****


