%nproc=1
%NoSave
%Mem=1900MB
#P OB98/GEN NMR

erre ene a

0 1
  C      132.621     401.892    -196.552
  O      132.257     402.905    -197.475
  P      132.629     404.422    -197.132
  C      130.290     405.079    -196.205
  O      131.671     404.901    -195.936
  C      129.867     406.518    -195.907
  O      130.225     406.849    -194.528
  C      130.529     407.567    -196.811
  O      129.582     408.627    -197.007
  C      131.681     408.064    -195.951
  O      132.177     409.330    -196.361
  C      131.005     408.057    -194.575
  N      131.965     408.123    -193.471
  C      132.806     409.230    -193.424
  O      132.786     410.145    -194.244
  N      133.734     409.232    -192.412
  C      133.958     408.214    -191.525
  O      134.880     408.229    -190.720
  C      133.041     407.072    -191.624
  C      132.101     407.075    -192.575
  O      132.087     405.234    -198.403
  O      134.084     404.666    -196.894
  H      132.824     409.619    -195.692
  H      132.825     405.439    -199.011
  H      134.346     410.031    -192.352
  H      133.178     406.256    -190.925
  H      131.426     406.236    -192.690
  H      130.301     408.895    -194.493
  H      132.504     407.345    -195.993
  H      130.863     407.167    -197.772
  H      128.775     406.584    -195.980
  H      129.713     404.395    -195.578
  H      130.082     404.829    -197.252
  P      129.536     409.334    -198.451
  C      130.383     411.551    -197.350
  O      130.523     410.594    -198.380
  O      128.074     409.984    -198.420
  O      129.746     408.390    -199.593
  H      127.869     410.404    -197.565
  H      130.052     411.087    -196.416
  H      129.653     412.305    -197.653
  H      131.346     412.036    -197.182
  H      132.304     400.940    -196.924
  H      132.150     402.082    -195.610
  H      133.683     401.890    -196.425

 3  4  5  6  7  8  9  10  11  12  13  23  28  29  30  31  32 0
 6-311+G(2d,p)
 ****
 33  34 0
 6-311+G(2d,p)
 ****
 1  2  14  15  16  17  18  19  20  21  22  24  25  26 0
 3-21G
 ****
 27  35  36  37  38  39  40  41  42  43  44  45 0
 3-21G
 ****


