%nproc=1
%NoSave
%Mem=1900MB
#P OB98/GEN NMR

erre ene a

0 1
  C     -594.694    -368.905    -384.936
  O     -596.017    -369.028    -384.463
  P     -596.315    -369.669    -383.031
  C     -597.438    -367.428    -382.408
  O     -596.488    -368.413    -382.031
  C     -598.566    -367.336    -381.363
  O     -598.047    -366.812    -380.121
  C     -599.693    -366.403    -381.768
  O     -600.548    -367.023    -382.719
  C     -600.357    -366.140    -380.408
  O     -601.241    -367.206    -380.051
  C     -599.132    -366.106    -379.467
  N     -598.737    -364.747    -379.109
  C     -598.769    -364.451    -377.740
  O     -599.149    -365.289    -376.933
  N     -598.421    -363.183    -377.331
  C     -598.088    -362.292    -378.226
  N     -597.770    -361.057    -377.754
  C     -598.076    -362.559    -379.679
  C     -598.405    -363.801    -380.036
  O     -595.339    -370.704    -382.585
  O     -597.813    -370.207    -383.169
  H     -601.470    -367.057    -379.108
  H     -597.844    -371.039    -383.722
  H     -597.795    -361.780    -380.385
  H     -598.411    -364.075    -381.084
  H     -599.339    -366.666    -378.552
  H     -600.933    -365.219    -380.404
  H     -599.291    -365.474    -382.174
  H     -598.946    -368.341    -381.193
  H     -597.828    -360.906    -376.757
  H     -597.868    -367.717    -383.386
  H     -597.530    -360.281    -378.372
  H     -596.946    -366.460    -382.534
  P     -600.958    -366.237    -384.047
  C     -600.001    -368.168    -385.461
  O     -600.022    -366.767    -385.230
  O     -601.057    -364.764    -383.924
  O     -602.391    -366.859    -384.431
  H     -603.002    -366.143    -384.679
  H     -599.598    -368.360    -386.451
  H     -601.003    -368.596    -385.378
  H     -599.337    -368.643    -384.715
  H     -594.703    -368.455    -385.907
  H     -594.245    -369.874    -384.996
  H     -594.130    -368.292    -384.264

 3  4  5  6  7  8  9  10  11  12  13  23  27  28  29  30  32 0
 6-311+G(2d,p)
 ****
 34  35 0
 6-311+G(2d,p)
 ****
 1  2  14  15  16  17  18  19  20  21  22  24  25  26 0
 3-21G
 ****
 31  33  36  37  38  39  40  41  42  43  44  45  46 0
 3-21G
 ****


