%nproc=1
%NoSave
%Mem=1900MB
#P OB98/GEN NMR

erre ene a

0 1
  C      469.625     -16.575      44.865
  O      468.345     -17.146      45.045
  H      469.819     -15.888      45.693
  H      469.658     -16.011      43.929
  H      470.399     -17.346      44.861
  P      467.879     -18.318      44.057
  C      469.080     -20.126      45.444
  O      468.963     -19.491      44.177
  C      468.731     -21.607      45.316
  O      469.618     -22.243      44.366
  C      468.891     -22.392      46.612
  O      467.834     -22.132      47.513
  C      468.953     -23.812      46.080
  O      467.641     -24.327      45.825
  C      469.733     -23.630      44.758
  N      471.135     -24.025      44.890
  C      471.495     -25.227      44.292
  O      470.706     -25.936      43.667
  N      472.790     -25.624      44.482
  C      473.691     -25.021      45.311
  O      474.752     -25.543      45.646
  C      473.279     -23.724      45.868
  C      472.033     -23.298      45.647
  O      467.551     -17.896      42.663
  O      466.597     -18.942      44.792
  H      465.787     -18.612      44.359
  H      467.159     -24.267      46.677
  H      473.047     -26.518      44.083
  H      473.993     -23.178      46.474
  H      471.695     -22.360      46.074
  H      469.276     -24.225      43.959
  H      469.444     -24.485      46.785
  H      469.854     -22.144      47.076
  H      467.704     -21.690      44.935
  H      468.383     -19.648      46.143
  H      470.102     -19.997      45.814
  P      467.797     -22.846      48.946
  C      468.848     -20.918      50.282
  O      468.999     -22.261      49.830
  O      467.715     -24.337      48.913
  O      466.502     -22.225      49.656
  H      465.955     -22.956      50.008
  H      469.705     -20.637      50.858
  H      467.970     -20.842      50.889
  H      468.756     -20.266      49.439

 6  7  8  9  10  11  12  13  14  15  16  27  31  32  33  34  35 0
 6-311+G(2d,p)
 ****
 36  37 0
 6-311+G(2d,p)
 ****
 1  2  3  4  5  17  18  19  20  21  22  23  24  25 0
 3-21G
 ****
 26  28  29  30  38  39  40  41  42  43  44  45 0
 3-21G
 ****


