%nproc=1
%NoSave
%Mem=1900MB
#P OB98/GEN NMR

erre ene a

0 1
  C     -252.670     456.633     396.116
  O     -251.356     456.100     396.146
  P     -250.411     456.398     394.883
  C     -250.763     455.869     392.359
  O     -250.893     455.426     393.703
  C     -251.689     455.063     391.447
  O     -253.056     455.466     391.650
  C     -251.426     455.243     389.958
  O     -250.274     454.524     389.549
  C     -252.738     454.725     389.380
  O     -252.741     453.288     389.373
  C     -253.764     455.250     390.399
  N     -257.669     457.331     387.821
  C     -257.302     456.046     388.026
  N     -256.240     455.569     388.703
  C     -255.513     456.579     389.211
  C     -255.748     457.938     389.069
  C     -256.885     458.308     388.337
  N     -257.252     459.622     388.130
  N     -254.772     458.671     389.708
  C     -253.969     457.774     390.236
  N     -254.381     456.494     389.976
  O     -249.007     455.776     395.323
  O     -250.297     457.844     394.512
  H     -252.473     452.993     390.265
  H     -248.265     456.301     394.964
  H     -257.960     455.297     387.582
  H     -253.085     457.997     390.820
  H     -254.569     454.531     390.594
  H     -252.916     455.062     388.354
  H     -251.303     456.304     389.717
  H     -251.596     454.003     391.726
  H     -249.729     455.730     392.025
  H     -257.996     459.802     387.474
  H     -256.592     460.343     388.393
  H     -251.000     456.936     392.312
  P     -249.474     455.081     388.276
  C     -250.081     455.364     385.796
  O     -250.511     454.899     387.064
  O     -248.422     453.905     388.015
  O     -248.899     456.445     388.441
  H     -248.847     453.028     388.013
  H     -250.853     455.133     385.058
  H     -249.151     454.864     385.507
  H     -249.931     456.447     385.826
  H     -253.186     456.360     397.013
  H     -253.195     456.241     395.270
  H     -252.621     457.699     396.043

 3  4  5  6  7  8  9  10  11  12  22  25  29  30  31  32 0
 6-311+G(2d,p)
 ****
 33  36  37 0
 6-311+G(2d,p)
 ****
 1  2  13  14  15  16  17  18  19  20  21  23  24  26 0
 3-21G
 ****
 27  28  34  35  38  39  40  41  42  43  44  45  46  47  48 0
 3-21G
 ****


