%nproc=1
%NoSave
%Mem=1900MB
#P OB98/GEN NMR

erre ene a

0 1
  C       71.076     -12.974    -186.195
  O       70.414     -13.613    -187.291
  P       70.804     -13.103    -188.762
  C       70.554     -10.912    -190.135
  O       70.215     -11.623    -188.950
  C       69.746      -9.613    -190.215
  O       68.370      -9.860    -190.573
  C       69.688      -8.852    -188.896
  O       70.917      -8.197    -188.630
  C       68.511      -7.917    -189.155
  O       68.926      -6.794    -189.952
  C       67.566      -8.811    -189.977
  N       63.003      -8.005    -187.793
  C       63.813      -7.201    -188.523
  N       65.013      -7.493    -189.070
  C       65.361      -8.765    -188.805
  C       64.641      -9.698    -188.080
  C       63.408      -9.275    -187.554
  N       62.592     -10.091    -186.797
  N       65.322     -10.898    -188.018
  C       66.444     -10.684    -188.676
  N       66.509      -9.410    -189.182
  O       69.884     -14.001    -189.718
  O       72.254     -13.257    -189.087
  H       68.197      -6.142    -189.943
  H       70.434     -14.657    -190.189
  H       63.445      -6.193    -188.696
  H       67.236     -11.412    -188.814
  H       67.083      -8.261    -190.794
  H       68.066      -7.522    -188.236
  H       69.448      -9.540    -188.074
  H       70.200      -8.975    -190.990
  H       70.354     -11.525    -191.018
  H       61.761      -9.686    -186.393
  H       62.920     -11.009    -186.539
  H       71.631     -10.710    -190.132
  P       71.790      -8.720    -187.389
  C       71.475      -8.602    -184.841
  O       70.900      -8.328    -186.108
  O       72.965      -7.638    -187.343
  O       72.218     -10.148    -187.472
  H       72.622      -6.727    -187.430
  H       70.784      -8.258    -184.064
  H       72.426      -8.069    -184.734
  H       71.633      -9.678    -184.724
  H       70.733     -13.399    -185.275
  H       70.857     -11.927    -186.208
  H       72.132     -13.119    -186.283

 3  4  5  6  7  8  9  10  11  12  22  25  29  30  31  32 0
 6-311+G(2d,p)
 ****
 33  36  37 0
 6-311+G(2d,p)
 ****
 1  2  13  14  15  16  17  18  19  20  21  23  24  26 0
 3-21G
 ****
 27  28  34  35  38  39  40  41  42  43  44  45  46  47  48 0
 3-21G
 ****


