%nproc=1
%NoSave
%Mem=1900MB
#P OB98/GEN NMR

erre ene a

0 1
  C     -938.554    1844.309     783.634
  O     -938.421    1845.127     782.486
  H     -939.044    1844.885     784.419
  H     -937.582    1843.991     783.988
  H     -939.170    1843.425     783.409
  P     -937.616    1844.484     781.241
  C     -936.467    1846.819     781.228
  O     -937.029    1845.774     780.473
  C     -935.664    1847.775     780.311
  O     -934.443    1847.140     779.882
  C     -936.401    1848.133     779.027
  O     -937.391    1849.143     779.215
  C     -935.232    1848.667     778.196
  O     -934.836    1849.982     778.703
  C     -934.162    1847.603     778.542
  N     -934.155    1846.464     777.584
  C     -933.493    1846.688     776.356
  O     -932.948    1847.780     776.107
  N     -933.480    1845.690     775.424
  C     -934.064    1844.562     775.712
  N     -934.026    1843.609     774.742
  C     -934.752    1844.260     776.972
  C     -934.749    1845.262     777.869
  O     -938.776    1843.976     780.269
  O     -936.597    1843.443     781.605
  H     -934.087    1850.251     778.152
  H     -938.387    1843.687     779.402
  H     -935.235    1843.342     777.148
  H     -935.249    1845.148     778.809
  H     -933.160    1848.062     778.558
  H     -935.447    1848.772     777.138
  H     -936.800    1847.272     778.516
  H     -935.396    1848.648     780.899
  H     -933.594    1843.841     773.855
  H     -935.801    1846.404     781.987
  H     -934.559    1842.729     774.780
  H     -937.260    1847.389     781.727
  P     -938.922    1848.693     779.068
  C     -939.770    1850.651     777.575
  O     -939.787    1850.038     778.840
  O     -939.307    1848.254     780.565
  O     -939.199    1847.602     778.064
  H     -939.951    1847.511     780.549
  H     -940.390    1851.523     777.593
  H     -940.140    1849.966     776.841
  H     -938.767    1850.931     777.328

 6  7  8  9  10  11  12  13  14  15  16  26  30  31  32  33  35 0
 6-311+G(2d,p)
 ****
 37  38 0
 6-311+G(2d,p)
 ****
 1  2  3  4  5  17  18  19  20  21  22  23  24  25 0
 3-21G
 ****
 27  28  29  34  36  39  40  41  42  43  44  45  46 0
 3-21G
 ****


