%nproc=1
%NoSave
%Mem=1900MB
#P OB98/GEN NMR

erre ene a

0 1
  C     -387.404    -505.094     458.125
  O     -386.197    -505.325     457.416
  H     -387.541    -505.902     458.850
  H     -388.251    -505.099     457.436
  H     -387.362    -504.142     458.662
  P     -385.652    -504.186     456.432
  C     -385.780    -505.686     454.329
  O     -384.939    -504.938     455.207
  C     -384.952    -506.702     453.553
  O     -383.921    -506.029     452.791
  C     -384.225    -507.714     454.432
  O     -385.120    -508.693     454.923
  C     -383.174    -508.231     453.457
  O     -383.735    -509.208     452.572
  C     -382.802    -506.935     452.690
  N     -381.574    -506.311     453.179
  C     -380.374    -506.878     452.758
  O     -380.321    -507.882     452.050
  N     -379.232    -506.265     453.205
  C     -379.176    -505.208     454.078
  O     -378.119    -504.730     454.483
  C     -380.471    -504.668     454.513
  C     -381.589    -505.233     454.052
  O     -384.835    -503.110     457.070
  O     -386.983    -503.597     455.761
  H     -384.050    -509.947     453.132
  H     -387.231    -502.762     456.200
  H     -378.352    -506.664     452.921
  H     -380.461    -503.845     455.208
  H     -382.557    -504.855     454.372
  H     -382.667    -507.156     451.622
  H     -382.330    -508.713     453.963
  H     -383.712    -507.200     455.260
  H     -385.618    -507.212     452.840
  H     -386.259    -504.987     453.628
  H     -386.555    -506.182     454.923
  P     -385.571    -508.689     456.455
  C     -384.353    -510.884     456.987
  O     -385.614    -510.218     456.955
  O     -386.806    -507.909     456.756
  O     -384.307    -508.090     457.235
  H     -384.497    -507.175     457.523
  H     -384.489    -511.888     457.331
  H     -383.693    -510.366     457.651
  H     -383.932    -510.898     456.003

 6  7  8  9  10  11  12  13  14  15  16  26  31  32  33  34  35 0
 6-311+G(2d,p)
 ****
 36  37 0
 6-311+G(2d,p)
 ****
 1  2  3  4  5  17  18  19  20  21  22  23  24  25 0
 3-21G
 ****
 27  28  29  30  38  39  40  41  42  43  44  45 0
 3-21G
 ****


