%nproc=1
%NoSave
%Mem=1900MB
#P OB98/GEN NMR

erre ene a

0 1
  C      637.639     -16.002      62.356
  O      638.110     -14.674      62.244
  P      639.637     -14.388      62.640
  C      641.055     -15.410      64.603
  O      639.804     -14.934      64.140
  C      641.031     -15.569      66.131
  O      639.875     -16.342      66.516
  C      642.227     -16.312      66.709
  O      643.383     -15.488      66.782
  C      641.673     -16.745      68.067
  O      641.732     -15.652      69.004
  C      640.205     -17.068      67.718
  N      639.953     -18.502      67.564
  C      639.729     -19.216      68.735
  O      639.735     -18.699      69.852
  N      639.513     -20.564      68.580
  C      639.558     -21.255      67.398
  O      639.404     -22.464      67.324
  C      639.830     -20.449      66.205
  C      640.012     -19.132      66.340
  O      639.608     -12.791      62.791
  O      640.616     -14.913      61.646
  H      638.720     -12.467      63.035
  H      641.261     -15.958      69.809
  H      639.328     -21.099      69.417
  H      639.891     -20.962      65.252
  H      640.223     -18.522      65.465
  H      639.544     -16.684      68.508
  H      642.235     -17.577      68.502
  H      642.448     -17.199      66.107
  H      640.942     -14.570      66.578
  H      641.839     -14.683      64.329
  H      641.287     -16.360      64.123
  P      644.799     -16.239      66.867
  C      645.549     -18.065      68.580
  O      644.897     -16.834      68.351
  O      645.816     -14.998      66.868
  O      645.030     -17.223      65.760
  H      645.507     -14.260      67.434
  H      645.830     -18.121      69.643
  H      646.459     -18.160      67.972
  H      644.868     -18.888      68.348
  H      636.611     -16.042      62.061
  H      637.732     -16.329      63.371
  H      638.218     -16.640      61.721

 3  4  5  6  7  8  9  10  11  12  13  24  28  29  30  31  32 0
 6-311+G(2d,p)
 ****
 33  34 0
 6-311+G(2d,p)
 ****
 1  2  14  15  16  17  18  19  20  21  22  23  25  26  27 0
 3-21G
 ****
 35  36  37  38  39  40  41  42  43  44  45 0
 3-21G
 ****


