%nproc=1
%NoSave
%Mem=1900MB
#P OB98/GEN NMR

erre ene a

0 1
  C      -31.824     197.788      88.358
  O      -31.958     196.582      87.631
  P      -30.666     196.001      86.870
  C      -29.920     194.675      89.019
  O      -29.602     195.615      88.012
  C      -28.983     193.465      88.941
  O      -27.613     193.918      89.150
  C      -29.264     192.368      89.980
  O      -28.979     191.107      89.353
  C      -28.254     192.668      91.077
  O      -27.981     191.532      91.891
  C      -27.059     193.138      90.232
  N      -26.096     193.933      90.995
  C      -24.997     193.273      91.547
  O      -24.805     192.066      91.449
  N      -24.120     194.063      92.256
  C      -24.269     195.395      92.516
  O      -23.464     196.051      93.173
  C      -25.471     196.029      91.951
  C      -26.309     195.287      91.222
  O      -30.070     197.328      86.212
  O      -30.975     194.901      85.911
  H      -30.184     198.118      86.773
  H      -27.415     191.825      92.631
  H      -23.299     193.617      92.632
  H      -25.628     197.084      92.149
  H      -27.198     195.731      90.794
  H      -26.548     192.280      89.781
  H      -28.638     193.468      91.710
  H      -30.303     192.384      90.322
  H      -29.034     193.053      87.923
  H      -30.953     194.328      88.879
  H      -29.855     195.154      90.003
  P      -29.788     189.806      89.849
  C      -32.050     190.261      88.612
  O      -31.344     190.177      89.827
  O      -29.431     189.836      91.414
  O      -29.387     188.525      89.196
  H      -29.559     190.711      91.817
  H      -33.124     190.184      88.815
  H      -31.770     189.454      87.928
  H      -31.848     191.225      88.134
  H      -32.763     198.042      88.804
  H      -31.520     198.572      87.696
  H      -31.088     197.663      89.124

 3  4  5  6  7  8  9  10  11  12  13  24  28  29  30  31  32 0
 6-311+G(2d,p)
 ****
 33  34 0
 6-311+G(2d,p)
 ****
 1  2  14  15  16  17  18  19  20  21  22  23  25  26  27 0
 3-21G
 ****
 35  36  37  38  39  40  41  42  43  44  45 0
 3-21G
 ****


