%nproc=1
%NoSave
%Mem=1900MB
#P OB98/GEN NMR

erre ene a

0 1
  C     -230.394    -690.097    -440.606
  O     -231.350    -690.199    -441.647
  H     -230.904    -689.784    -439.692
  H     -229.639    -689.346    -440.856
  H     -229.915    -691.065    -440.427
  P     -230.886    -690.791    -443.061
  C     -232.018    -693.073    -442.659
  O     -230.800    -692.378    -442.898
  C     -232.448    -693.805    -443.918
  O     -231.403    -694.698    -444.362
  C     -233.687    -694.689    -443.728
  O     -234.867    -693.909    -443.686
  C     -233.565    -695.610    -444.929
  O     -234.066    -694.973    -446.117
  C     -232.043    -695.826    -445.017
  N     -231.611    -697.087    -444.426
  C     -231.236    -698.096    -445.318
  O     -231.292    -697.974    -446.544
  N     -230.832    -699.274    -444.745
  C     -230.863    -699.568    -443.413
  O     -230.567    -700.673    -442.963
  C     -231.282    -698.489    -442.523
  C     -231.630    -697.313    -443.058
  O     -229.683    -690.147    -443.671
  O     -232.183    -690.594    -443.986
  H     -235.040    -695.039    -446.078
  H     -232.039    -689.851    -444.598
  H     -230.575    -700.023    -445.375
  H     -231.311    -698.679    -441.459
  H     -231.950    -696.497    -442.420
  H     -231.716    -695.807    -446.062
  H     -234.134    -696.527    -444.796
  H     -233.583    -695.281    -442.815
  H     -232.621    -693.061    -444.716
  H     -232.784    -692.343    -442.377
  H     -231.866    -693.776    -441.822
  P     -236.176    -694.477    -442.959
  C     -235.769    -693.107    -440.819
  O     -235.916    -694.412    -441.374
  O     -236.666    -695.796    -443.464
  O     -237.274    -693.336    -443.185
  H     -238.023    -693.701    -443.693
  H     -235.601    -693.184    -439.765
  H     -236.659    -692.541    -440.998
  H     -234.936    -692.616    -441.277

 6  7  8  9  10  11  12  13  14  15  16  26  31  32  33  34  35 0
 6-311+G(2d,p)
 ****
 36  37 0
 6-311+G(2d,p)
 ****
 1  2  3  4  5  17  18  19  20  21  22  23  24  25 0
 3-21G
 ****
 27  28  29  30  38  39  40  41  42  43  44  45 0
 3-21G
 ****


