%nproc=1
%NoSave
%Mem=1900MB
#P OB98/GEN NMR

erre ene a

0 1
  C       65.891      71.622     164.060
  O       67.055      70.829     163.880
  P       67.915      70.453     165.184
  C       69.101      72.751     165.283
  O       68.228      71.836     165.937
  C       70.162      73.272     166.248
  O       69.541      74.219     167.164
  C       70.836      72.180     167.099
  O       72.251      72.424     167.150
  C       70.278      72.417     168.492
  O       71.151      71.938     169.511
  C       70.100      73.935     168.465
  N       70.104      76.245     172.959
  C       71.130      76.077     172.055
  N       72.344      76.547     172.426
  N       70.988      75.503     170.888
  C       69.711      75.114     170.637
  C       68.607      75.230     171.450
  C       68.795      75.812     172.764
  O       67.945      75.907     173.643
  N       67.483      74.732     170.839
  C       67.906      74.310     169.663
  N       69.260      74.478     169.510
  O       69.327      70.025     164.566
  O       67.344      69.367     166.034
  H       71.306      70.989     169.329
  H       69.557      69.123     164.865
  H       70.269      76.675     173.852
  H       67.278      73.853     168.905
  H       71.079      74.433     168.530
  H       69.314      71.902     168.586
  H       72.517      77.031     173.292
  H       70.649      71.158     166.748
  H       73.104      76.455     171.762
  H       70.913      73.832     165.673
  H       68.516      73.593     164.903
  H       69.577      72.240     164.438
  P       73.192      71.127     167.062
  C       73.175      70.524     169.597
  O       72.758      70.188     168.288
  O       74.631      71.685     167.493
  O       73.210      70.481     165.713
  H       75.342      71.124     167.125
  H       73.632      71.517     169.645
  H       73.900      69.784     169.941
  H       72.303      70.506     170.260
  H       65.424      71.791     163.112
  H       66.163      72.561     164.496
  H       65.209      71.112     164.708

 3  4  5  6  7  8  9  10  11  12  23  26  30  31  33  0
 6-311+G(2d,p)
 ****
 35  36  37  38 0
 6-311+G(2d,p)
 ****
 1  2  13  14  15  16  17  18  19  20  21  22  24  25  27  28  29 0
 3-21G
 ****
 32  34  39  40  41  42  43  44  45  46  47  48  49 0
 3-21G
 ****


