%nproc=1
%NoSave
%Mem=1900MB
#P OB98/GEN NMR

erre ene a

0 1
  C       32.290    -238.943     -73.002
  O       32.029    -237.560     -72.871
  P       32.478    -236.520     -74.000
  C       34.789    -236.499     -72.860
  O       34.082    -236.601     -74.093
  C       35.191    -235.043     -72.597
  O       35.784    -234.955     -71.263
  C       36.224    -234.512     -73.611
  O       35.856    -233.284     -74.243
  C       37.505    -234.467     -72.793
  O       38.492    -233.598     -73.317
  C       36.969    -234.144     -71.394
  N       37.947    -234.412     -70.342
  C       38.612    -233.315     -69.798
  O       38.422    -232.150     -70.138
  N       39.575    -233.598     -68.870
  C       40.014    -234.841     -68.524
  O       40.950    -235.020     -67.757
  C       39.300    -235.962     -69.161
  C       38.299    -235.705     -70.008
  O       31.943    -235.137     -73.843
  O       32.032    -237.241     -75.359
  H       39.231    -233.561     -72.680
  H       32.439    -238.113     -75.514
  H       40.065    -232.812     -68.471
  H       39.632    -236.959     -68.912
  H       37.755    -236.509     -70.492
  H       36.657    -233.099     -71.316
  H       37.937    -235.476     -72.792
  H       36.352    -235.212     -74.447
  H       34.280    -234.439     -72.610
  H       35.689    -237.112     -72.921
  H       34.176    -236.896     -72.045
  P       35.998    -232.978     -75.810
  C       37.881    -231.233     -75.403
  O       37.465    -232.404     -76.077
  O       34.886    -232.174     -76.403
  O       36.050    -234.438     -76.471
  H       35.684    -234.401     -77.373
  H       38.617    -230.715     -76.022
  H       38.356    -231.512     -74.458
  H       37.044    -230.558     -75.210
  H       31.911    -239.460     -72.145
  H       33.346    -239.101     -73.077
  H       31.811    -239.315     -73.883

 3  4  5  6  7  8  9  10  11  12  13  23  28  29  30  31  32 0
 6-311+G(2d,p)
 ****
 33  34 0
 6-311+G(2d,p)
 ****
 1  2  14  15  16  17  18  19  20  21  22  24  25  26  27 0
 3-21G
 ****
 35  36  37  38  39  40  41  42  43  44  45 0
 3-21G
 ****


