%nproc=1
%NoSave
%Mem=1900MB
#P OB98/GEN NMR

erre ene a

0 1
  C      -77.180    -166.576     -43.551
  O      -77.695    -167.443     -44.534
  H      -77.946    -166.425     -42.785
  H      -76.936    -165.604     -43.987
  H      -76.294    -167.008     -43.079
  P      -76.792    -167.808     -45.811
  C      -77.609    -170.194     -46.286
  O      -76.568    -169.401     -45.730
  C      -78.070    -171.267     -45.299
  O      -78.646    -170.631     -44.125
  C      -79.127    -172.222     -45.872
  O      -78.775    -173.573     -45.567
  C      -80.394    -171.843     -45.122
  O      -81.347    -172.901     -45.065
  C      -79.811    -171.399     -43.777
  N      -80.768    -170.632     -42.990
  C      -81.063    -171.133     -41.718
  O      -80.519    -172.163     -41.317
  N      -82.002    -170.490     -40.956
  C      -82.629    -169.463     -41.439
  N      -83.569    -168.890     -40.643
  C      -82.370    -168.918     -42.788
  C      -81.433    -169.543     -43.500
  O      -75.546    -167.001     -45.944
  O      -77.775    -167.655     -47.065
  H      -81.560    -173.178     -45.983
  H      -77.236    -167.514     -47.878
  H      -82.924    -168.064     -43.147
  H      -81.174    -169.215     -44.501
  H      -79.485    -172.264     -43.184
  H      -80.870    -170.989     -45.622
  H      -79.256    -172.122     -46.949
  H      -77.188    -171.817     -44.947
  H      -83.720    -169.301     -39.728
  H      -77.241    -170.657     -47.209
  H      -84.137    -168.104     -40.919
  H      -78.454    -169.540     -46.523
  P      -77.989    -174.376     -46.712
  C      -75.814    -174.863     -45.386
  O      -76.416    -174.172     -46.469
  O      -78.292    -173.525     -48.034
  O      -78.435    -175.793     -46.858
  H      -78.885    -174.028     -48.622
  H      -74.770    -174.630     -45.350
  H      -75.940    -175.917     -45.521
  H      -76.278    -174.563     -44.470

 6  7  8  9  10  11  12  13  14  15  16  26  30  31  32  33  35 0
 6-311+G(2d,p)
 ****
 37  38 0
 6-311+G(2d,p)
 ****
 1  2  3  4  5  17  18  19  20  21  22  23  24  25 0
 3-21G
 ****
 27  28  29  34  36  39  40  41  42  43  44  45  46 0
 3-21G
 ****


