%nproc=1
%NoSave
%Mem=1900MB
#P OB98/GEN NMR

erre ene a

0 1
  C      161.136      34.272    -107.743
  O      162.268      33.626    -108.278
  H      160.265      34.008    -108.351
  H      161.261      35.357    -107.779
  H      160.956      33.949    -106.715
  P      163.704      33.870    -107.604
  C      164.475      34.887    -109.832
  O      164.357      35.090    -108.430
  C      165.190      36.062    -110.499
  O      164.490      37.297    -110.186
  C      166.649      36.233    -110.051
  O      167.486      36.427    -111.193
  C      166.621      37.505    -109.219
  O      167.885      38.159    -109.155
  C      165.503      38.283    -109.919
  N      165.007      39.383    -109.104
  C      165.932      40.383    -108.788
  O      167.090      40.308    -109.201
  N      165.541      41.413    -107.973
  C      164.344      41.419    -107.475
  N      164.029      42.453    -106.650
  C      163.344      40.369    -107.758
  C      163.737      39.393    -108.576
  O      164.558      32.653    -107.498
  O      163.384      34.538    -106.186
  H      167.879      38.775    -108.390
  H      164.151      34.395    -105.585
  H      162.362      40.417    -107.313
  H      163.073      38.577    -108.841
  H      165.847      38.687    -110.880
  H      166.317      37.259    -108.193
  H      167.024      35.387    -109.476
  H      165.121      35.938    -111.587
  H      164.748      43.146    -106.477
  H      163.472      34.759    -110.253
  H      163.140      42.551    -106.186
  H      165.055      33.974    -110.000
  P      168.657      35.351    -111.405
  C      170.607      36.962    -111.980
  O      170.050      36.057    -111.039
  O      168.716      35.177    -112.995
  O      168.400      34.050    -110.720
  H      168.382      34.295    -113.244
  H      171.529      37.350    -111.599
  H      169.923      37.768    -112.148
  H      170.789      36.451    -112.902

 6  7  8  9  10  11  12  13  14  15  16  26  30  31  32  33  35 0
 6-311+G(2d,p)
 ****
 37  38 0
 6-311+G(2d,p)
 ****
 1  2  3  4  5  17  18  19  20  21  22  23  24  25 0
 3-21G
 ****
 27  28  29  34  36  39  40  41  42  43  44  45  46 0
 3-21G
 ****


