%nproc=1
%NoSave
%Mem=1900MB
#P OB98/GEN NMR

erre ene a

0 1
  C       56.914      85.760    -105.889
  O       58.221      86.291    -106.145
  P       59.060      87.126    -105.060
  C       61.393      86.424    -105.904
  O       60.497      87.502    -105.671
  C       62.372      86.734    -107.042
  O       61.653      86.839    -108.309
  C       63.169      88.039    -106.860
  O       64.492      87.782    -107.341
  C       62.416      88.997    -107.772
  O       63.158      90.151    -108.122
  C       62.106      88.055    -108.940
  N       61.116      88.544    -109.893
  C       61.520      88.713    -111.224
  O       62.682      88.514    -111.572
  N       60.586      89.130    -112.144
  C       59.368      89.365    -111.775
  N       58.494      89.766    -112.738
  C       58.905      89.220    -110.385
  C       59.819      88.809    -109.508
  O       59.142      86.460    -103.724
  O       58.315      88.539    -104.937
  H       58.361      88.847    -104.012
  H       62.663      90.629    -108.812
  H       57.878      89.420    -110.122
  H       59.550      88.649    -108.467
  H       63.035      87.815    -109.469
  H       61.508      89.327    -107.261
  H       63.232      88.373    -105.820
  H       63.056      85.882    -107.142
  H       58.848      89.844    -113.685
  H       60.809      85.539    -106.173
  H       57.521      89.967    -112.563
  H       61.940      86.206    -104.979
  P       65.737      87.889    -106.339
  C       66.816      85.729    -107.318
  O       66.963      87.099    -107.003
  O       65.300      86.885    -105.166
  O       66.023      89.243    -105.778
  H       65.743      87.148    -104.339
  H       67.232      85.550    -108.313
  H       65.773      85.412    -107.314
  H       67.374      85.133    -106.589
  H       56.561      85.246    -106.758
  H       56.244      86.560    -105.652
  H       56.961      85.078    -105.066

 3  4  5  6  7  8  9  10  11  12  13  24  27  28  29  30  32 0
 6-311+G(2d,p)
 ****
 34  35 0
 6-311+G(2d,p)
 ****
 1  2  14  15  16  17  18  19  20  21  22  23  25  26 0
 3-21G
 ****
 31  33  36  37  38  39  40  41  42  43  44  45  46 0
 3-21G
 ****


