%nproc=1
%NoSave
%Mem=1900MB
#P OB98/GEN NMR

erre ene a

0 1
  C      446.661     146.499     -21.265
  O      447.682     147.465     -21.125
  H      445.810     146.803     -20.649
  H      447.010     145.523     -20.918
  H      446.332     146.431     -22.305
  P      449.052     147.251     -21.932
  C      449.346     149.807     -21.627
  O      449.948     148.526     -21.532
  C      450.213     150.851     -20.931
  O      451.597     150.732     -21.329
  C      449.851     152.298     -21.245
  O      448.660     152.740     -20.617
  C      451.083     153.001     -20.705
  O      451.023     153.044     -19.270
  C      452.200     152.051     -21.195
  N      452.785     152.476     -22.467
  C      453.842     153.390     -22.395
  O      454.240     153.807     -21.308
  N      454.413     153.837     -23.563
  C      453.948     153.428     -24.706
  N      454.543     153.911     -25.833
  C      452.820     152.483     -24.827
  C      452.296     152.052     -23.682
  O      448.917     146.995     -23.400
  O      449.800     146.076     -21.147
  H      450.211     153.533     -19.037
  H      450.652     145.894     -21.613
  H      452.451     152.196     -25.800
  H      451.459     151.360     -23.690
  H      452.999     151.970     -20.447
  H      451.182     154.031     -21.059
  H      449.802     152.464     -22.330
  H      450.166     150.650     -19.853
  H      455.310     154.557     -25.714
  H      448.353     149.754     -21.173
  H      454.199     153.704     -26.758
  H      449.238     150.095     -22.681
  P      447.606     153.544     -21.532
  C      445.735     152.769     -19.883
  O      446.336     153.837     -20.601
  O      447.092     152.427     -22.556
  O      448.157     154.749     -22.221
  H      447.562     152.502     -23.410
  H      444.907     153.141     -19.317
  H      446.454     152.336     -19.220
  H      445.392     152.025     -20.571

 6  7  8  9  10  11  12  13  14  15  16  26  30  31  32  33  35 0
 6-311+G(2d,p)
 ****
 37  38 0
 6-311+G(2d,p)
 ****
 1  2  3  4  5  17  18  19  20  21  22  23  24  25 0
 3-21G
 ****
 27  28  29  34  36  39  40  41  42  43  44  45  46 0
 3-21G
 ****


