%nproc=1
%NoSave
%Mem=1900MB
#P OB98/GEN NMR

erre ene a

0 1
  C      267.817     269.455     279.599
  O      268.471     270.220     280.607
  P      267.783     271.612     281.031
  C      269.375     272.989     279.494
  O      268.036     272.637     279.828
  C      269.415     273.712     278.151
  O      268.937     272.844     277.102
  C      268.536     274.956     278.074
  O      269.125     276.047     278.762
  C      268.432     275.138     276.569
  O      269.628     275.752     276.059
  C      268.334     273.679     276.077
  N      264.294     274.075     272.954
  C      265.513     274.669     272.927
  N      266.526     274.528     273.807
  C      266.190     273.667     274.787
  C      264.978     273.012     274.953
  C      264.000     273.235     273.975
  N      262.760     272.634     273.995
  N      265.003     272.231     276.092
  C      266.207     272.409     276.602
  N      266.963     273.257     275.848
  O      268.749     272.154     282.188
  O      266.364     271.496     281.491
  H      270.395     275.300     276.482
  H      268.243     272.636     282.867
  H      265.695     275.339     272.097
  H      266.565     271.937     277.504
  H      268.895     273.514     275.146
  H      267.583     275.768     276.263
  H      267.543     274.753     278.496
  H      270.459     273.974     277.928
  H      269.985     272.081     279.424
  H      262.065     272.968     273.346
  H      262.491     272.133     274.837
  H      269.787     273.619     280.288
  P      268.169     276.933     279.700
  C      267.895     278.410     277.608
  O      267.224     277.715     278.644
  O      269.175     278.088     280.184
  O      267.462     276.180     280.772
  H      269.673     278.473     279.448
  H      267.149     278.847     276.949
  H      268.522     277.727     277.027
  H      268.512     279.211     278.024
  H      268.374     268.560     279.413
  H      267.754     270.030     278.699
  H      266.831     269.200     279.928

 3  4  5  6  7  8  9  10  11  12  22  25  29  30  31  32 0
 6-311+G(2d,p)
 ****
 33  36  37 0
 6-311+G(2d,p)
 ****
 1  2  13  14  15  16  17  18  19  20  21  23  24  26 0
 3-21G
 ****
 27  28  34  35  38  39  40  41  42  43  44  45  46  47  48 0
 3-21G
 ****


