%nproc=1
%NoSave
%Mem=1900MB
#P OB98/GEN NMR

erre ene a

0 1
  C      378.354    -157.072     -12.498
  O      379.019    -157.573     -11.355
  H      377.778    -156.189     -12.210
  H      377.669    -157.828     -12.894
  H      379.082    -156.785     -13.269
  P      380.062    -158.768     -11.585
  C      379.575    -161.042     -12.806
  O      379.202    -160.114     -11.799
  C      378.394    -161.958     -13.129
  O      377.412    -161.287     -13.938
  C      378.771    -163.181     -13.952
  O      379.507    -164.132     -13.217
  C      377.389    -163.662     -14.376
  O      376.746    -164.383     -13.314
  C      376.665    -162.319     -14.649
  N      376.546    -162.018     -16.064
  C      375.326    -162.366     -16.656
  O      374.429    -162.887     -15.980
  N      375.159    -162.155     -18.009
  C      376.117    -161.616     -18.693
  N      375.902    -161.433     -20.026
  C      377.409    -161.206     -18.104
  C      377.555    -161.443     -16.803
  O      380.685    -158.972     -10.125
  O      381.068    -158.536     -12.665
  H      376.595    -163.735     -12.595
  H      380.016    -159.108      -9.433
  H      378.174    -160.751     -18.724
  H      378.472    -161.171     -16.294
  H      375.658    -162.329     -14.208
  H      377.436    -164.332     -15.233
  H      379.312    -162.872     -14.857
  H      377.919    -162.245     -12.178
  H      375.006    -161.746     -20.397
  H      380.448    -161.625     -12.502
  H      376.579    -161.054     -20.665
  H      379.857    -160.466     -13.694
  P      380.318    -165.298     -13.970
  C      379.635    -166.867     -15.893
  O      379.214    -166.209     -14.702
  O      381.280    -166.053     -13.117
  O      381.000    -164.530     -15.205
  H      380.374    -164.101     -15.812
  H      378.823    -167.440     -16.290
  H      380.455    -167.517     -15.670
  H      379.943    -166.138     -16.613

 6  7  8  9  10  11  12  13  14  15  16  26  30  31  32  33  35 0
 6-311+G(2d,p)
 ****
 37  38 0
 6-311+G(2d,p)
 ****
 1  2  3  4  5  17  18  19  20  21  22  23  24  25 0
 3-21G
 ****
 27  28  29  34  36  39  40  41  42  43  44  45  46 0
 3-21G
 ****


