%nproc=1
%NoSave
%Mem=1900MB
#P OB98/GEN NMR

erre ene a

0 1
  C     -186.540     257.556    -378.830
  O     -185.672     258.221    -379.726
  H     -185.986     257.215    -377.950
  H     -187.315     258.256    -378.506
  H     -187.018     256.706    -379.324
  P     -184.460     257.363    -380.331
  C     -185.484     256.955    -382.685
  O     -185.117     256.395    -381.431
  C     -185.064     256.016    -383.811
  O     -183.623     256.001    -383.934
  C     -185.477     254.563    -383.601
  O     -186.827     254.332    -383.963
  C     -184.525     253.863    -384.555
  O     -184.991     254.019    -385.908
  C     -183.228     254.661    -384.345
  N     -180.074     250.786    -383.243
  C     -180.817     251.063    -384.336
  N     -181.638     252.113    -384.548
  C     -181.645     252.932    -383.486
  C     -180.946     252.779    -382.301
  C     -180.122     251.648    -382.199
  N     -179.372     251.354    -381.078
  N     -181.239     253.807    -381.425
  C     -182.074     254.583    -382.085
  N     -182.357     254.091    -383.334
  O     -184.081     256.357    -379.144
  O     -183.285     258.147    -380.811
  H     -184.979     254.978    -386.100
  H     -183.174     256.021    -379.268
  H     -180.747     250.340    -385.147
  H     -182.496     255.507    -381.708
  H     -182.641     254.761    -385.265
  H     -184.438     252.794    -384.364
  H     -185.272     254.230    -382.580
  H     -185.476     256.409    -384.749
  H     -184.980     257.921    -382.810
  H     -178.965     250.433    -381.038
  H     -179.519     251.907    -380.246
  H     -186.569     257.113    -382.705
  P     -187.587     253.112    -383.247
  C     -188.330     254.618    -381.259
  O     -187.602     253.468    -381.683
  O     -186.530     251.919    -383.348
  O     -188.906     252.759    -383.850
  H     -186.978     251.053    -383.337
  H     -188.246     254.722    -380.197
  H     -189.360     254.506    -381.526
  H     -187.931     255.489    -381.736

 6  7  8  9  10  11  12  13  14  15  25  28  32  33  34  35 0
 6-311+G(2d,p)
 ****
 36  39  40 0
 6-311+G(2d,p)
 ****
 1  2  3  4  5  16  17  18  19  20  21  22  23  24 0
 3-21G
 ****
 26  27  29  30  31  37  38  41  42  43  44  45  46  47 0
 3-21G
 ****
 48 0
 3-21G
 ****


