%nproc=1
%NoSave
%Mem=1900MB
#P OB98/GEN NMR

erre ene a

0 1
  C      -81.168     113.003     -95.928
  O      -82.508     113.407     -95.739
  H      -80.540     113.525     -95.201
  H      -80.827     113.261     -96.933
  H      -81.067     111.926     -95.765
  P      -83.631     112.835     -96.728
  C      -84.623     110.780     -95.521
  O      -84.763     112.168     -95.806
  C      -85.972     110.191     -95.095
  O      -85.770     108.783     -94.817
  C      -86.531     110.857     -93.829
  O      -87.865     111.332     -93.989
  C      -86.277     109.816     -92.745
  O      -87.159     109.883     -91.644
  C      -86.318     108.494     -93.518
  N      -85.578     107.410     -92.877
  C      -86.267     106.226     -92.629
  O      -87.439     106.013     -92.929
  N      -85.543     105.240     -92.009
  C      -84.241     105.322     -91.618
  O      -83.644     104.402     -91.073
  C      -83.574     106.605     -91.886
  C      -84.263     107.575     -92.492
  O      -83.136     111.966     -97.834
  O      -84.355     114.147     -97.292
  H      -87.097     109.034     -91.161
  H      -84.040     114.330     -98.197
  H      -86.029     104.374     -91.836
  H      -82.543     106.709     -91.580
  H      -83.800     108.535     -92.707
  H      -87.347     108.160     -93.650
  H      -85.264     109.970     -92.353
  H      -85.968     111.766     -93.586
  H      -86.672     110.266     -95.935
  H      -83.891     110.674     -94.716
  H      -84.255     110.258     -96.411
  P      -88.270     112.866     -94.159
  C      -88.379     113.144     -96.764
  O      -89.075     113.019     -95.533
  O      -87.182     113.852     -93.899
  O      -89.402     113.079     -93.029
  H      -89.317     114.004     -92.721
  H      -89.083     113.235     -97.564
  H      -87.772     112.277     -96.920
  H      -87.757     114.014     -96.735

 6  7  8  9  10  11  12  13  14  15  16  26  31  32  33  34  35 0
 6-311+G(2d,p)
 ****
 36  37 0
 6-311+G(2d,p)
 ****
 1  2  3  4  5  17  18  19  20  21  22  23  24  25 0
 3-21G
 ****
 27  28  29  30  38  39  40  41  42  43  44  45 0
 3-21G
 ****


