%nproc=1
%NoSave
%Mem=1900MB
#P OB98/GEN NMR

erre ene a

0 1
  C     -169.149     313.543     -72.338
  O     -168.000     313.939     -71.611
  H     -169.888     314.349     -72.343
  H     -168.858     313.325     -73.370
  H     -169.584     312.641     -71.894
  P     -168.221     314.338     -70.072
  C     -169.021     311.892     -69.686
  O     -169.289     313.277     -69.509
  C     -168.732     311.258     -68.326
  O     -169.859     311.444     -67.439
  C     -168.497     309.751     -68.387
  O     -167.169     309.423     -68.762
  C     -168.776     309.363     -66.945
  O     -167.650     309.720     -66.118
  C     -169.983     310.256     -66.610
  N     -173.445     306.891     -64.891
  C     -172.293     307.349     -64.357
  N     -171.434     308.261     -64.870
  C     -171.879     308.718     -66.050
  C     -173.042     308.349     -66.714
  C     -173.845     307.382     -66.088
  N     -175.007     306.889     -66.639
  N     -173.149     309.025     -67.919
  C     -172.080     309.794     -67.968
  N     -171.264     309.625     -66.879
  O     -169.070     315.694     -70.147
  O     -166.983     314.468     -69.246
  H     -167.647     310.695     -66.046
  H     -169.069     316.144     -69.279
  H     -172.012     306.923     -63.394
  H     -171.846     310.486     -68.771
  H     -169.993     310.580     -65.560
  H     -168.940     308.291     -66.819
  H     -169.229     309.256     -69.035
  H     -167.867     311.773     -67.881
  H     -168.149     311.775     -70.339
  H     -175.434     306.095     -66.189
  H     -175.237     307.143     -67.593
  H     -169.887     311.408     -70.151
  P     -166.925     307.983     -69.433
  C     -166.450     309.234     -71.667
  O     -167.147     308.174     -71.014
  O     -168.213     307.152     -68.976
  O     -165.650     307.319     -69.030
  H     -168.000     306.209     -68.863
  H     -166.697     309.235     -72.708
  H     -165.396     309.093     -71.550
  H     -166.735     310.169     -71.232

 6  7  8  9  10  11  12  13  14  15  25  28  32  33  34  35 0
 6-311+G(2d,p)
 ****
 36  39  40 0
 6-311+G(2d,p)
 ****
 1  2  3  4  5  16  17  18  19  20  21  22  23  24 0
 3-21G
 ****
 26  27  29  30  31  37  38  41  42  43  44  45  46  47 0
 3-21G
 ****
 48 0
 3-21G
 ****


