%nproc=1
%NoSave
%Mem=1900MB
#P OB98/GEN NMR

erre ene a

0 1
  C        5.842      45.186     -47.218
  O        4.561      44.584     -47.096
  P        3.428      45.401     -46.302
  C        3.320      46.405     -43.908
  O        3.922      45.451     -44.776
  C        3.245      45.862     -42.485
  O        2.325      44.754     -42.422
  C        4.563      45.331     -41.940
  O        5.395      46.367     -41.445
  C        4.072      44.455     -40.800
  O        3.750      45.273     -39.659
  C        2.796      43.846     -41.391
  N        3.112      38.847     -40.369
  C        2.968      39.921     -39.565
  N        2.903      41.223     -39.913
  C        3.043      41.368     -41.242
  C        3.235      40.368     -42.180
  C        3.257      39.049     -41.701
  N        3.374      37.952     -42.524
  N        3.339      40.904     -43.445
  C        3.202      42.201     -43.277
  N        3.011      42.531     -41.964
  O        2.204      44.371     -46.259
  O        3.045      46.705     -46.912
  H        4.592      45.632     -39.321
  H        1.364      44.855     -46.139
  H        2.884      39.707     -38.504
  H        3.225      42.935     -44.072
  H        1.995      43.755     -40.649
  H        4.820      43.727     -40.470
  H        5.080      44.710     -42.683
  H        2.856      46.660     -41.839
  H        2.308      46.620     -44.262
  H        3.197      37.043     -42.127
  H        3.280      38.096     -43.523
  H        3.904      47.330     -43.934
  P        6.977      46.191     -41.662
  C        8.786      44.699     -40.542
  O        7.443      45.142     -40.545
  O        7.569      47.588     -41.155
  O        7.370      45.882     -43.067
  H        8.427      47.771     -41.584
  H        9.007      44.255     -39.568
  H        9.477      45.530     -40.711
  H        8.927      43.940     -41.316
  H        6.491      44.535     -47.766
  H        6.249      45.359     -46.244
  H        5.750      46.118     -47.736

 3  4  5  6  7  8  9  10  11  12  22  25  29  30  31  32 0
 6-311+G(2d,p)
 ****
 33  36  37 0
 6-311+G(2d,p)
 ****
 1  2  13  14  15  16  17  18  19  20  21  23  24  26 0
 3-21G
 ****
 27  28  34  35  38  39  40  41  42  43  44  45  46  47  48 0
 3-21G
 ****


