%nproc=1
%NoSave
%Mem=1900MB
#P OB98/GEN NMR

erre ene a

0 1
  C     -660.316     922.123     148.195
  O     -659.155     922.458     147.452
  H     -660.009     921.528     149.055
  H     -660.984     921.529     147.581
  H     -660.819     923.030     148.549
  P     -659.328     923.468     146.223
  C     -657.685     925.363     146.909
  O     -657.928     924.247     146.061
  C     -656.189     925.666     146.960
  O     -655.549     924.758     147.904
  C     -655.474     925.520     145.614
  O     -654.485     926.546     145.485
  C     -654.778     924.153     145.727
  O     -653.649     924.047     144.865
  C     -654.465     924.089     147.231
  N     -654.306     922.716     147.687
  C     -653.052     922.124     147.443
  O     -652.157     922.759     146.866
  N     -652.862     920.814     147.810
  C     -653.857     920.130     148.279
  N     -653.603     918.822     148.599
  C     -655.202     920.689     148.490
  C     -655.353     921.988     148.176
  O     -660.308     924.589     146.805
  O     -659.843     922.857     144.962
  H     -652.960     924.677     145.188
  H     -660.875     924.968     146.103
  H     -656.009     920.071     148.866
  H     -656.313     922.480     148.290
  H     -653.540     924.652     147.447
  H     -655.482     923.369     145.458
  H     -656.159     925.550     144.756
  H     -656.047     926.687     147.350
  H     -652.666     918.470     148.421
  H     -658.025     925.124     147.914
  H     -654.301     918.185     148.926
  H     -658.234     926.230     146.532
  P     -653.762     926.673     144.064
  C     -654.345     929.103     143.308
  O     -653.360     928.209     143.848
  O     -654.946     926.433     143.014
  O     -652.638     925.688     143.877
  H     -654.840     925.560     142.588
  H     -653.928     930.085     143.224
  H     -655.195     929.131     143.957
  H     -654.646     928.760     142.340

 6  7  8  9  10  11  12  13  14  15  16  26  30  31  32  33  35 0
 6-311+G(2d,p)
 ****
 37  38 0
 6-311+G(2d,p)
 ****
 1  2  3  4  5  17  18  19  20  21  22  23  24  25 0
 3-21G
 ****
 27  28  29  34  36  39  40  41  42  43  44  45  46 0
 3-21G
 ****


