%nproc=1
%NoSave
%Mem=1900MB
#P OB98/GEN NMR

erre ene a

0 1
  C      607.483     386.277     283.547
  O      607.373     385.972     282.172
  H      608.058     385.487     284.035
  H      606.490     386.319     283.997
  H      607.999     387.230     283.690
  P      606.740     387.109     281.229
  C      608.854     388.615     281.159
  O      607.505     388.474     281.585
  C      609.027     389.917     280.383
  O      608.325     389.848     279.122
  C      608.494     391.151     281.102
  O      609.430     391.659     282.045
  C      608.325     392.105     279.930
  O      609.610     392.634     279.543
  C      607.784     391.172     278.840
  N      603.678     391.760     275.927
  C      605.013     391.948     275.625
  N      605.295     392.362     274.372
  N      605.985     391.755     276.478
  C      605.555     391.352     277.696
  C      604.262     391.131     278.113
  C      603.194     391.340     277.160
  O      601.999     391.165     277.368
  N      604.217     390.718     279.420
  C      605.484     390.711     279.802
  N      606.331     391.097     278.794
  O      605.281     387.333     281.852
  O      606.664     386.771     279.780
  H      610.105     392.797     280.365
  H      604.655     387.522     281.125
  H      602.966     391.936     275.235
  H      605.830     390.439     280.787
  H      608.124     391.459     277.840
  H      607.688     392.957     280.171
  H      604.592     392.578     273.682
  H      607.517     390.959     281.559
  H      606.269     392.477     274.116
  H      610.096     390.035     280.154
  H      609.117     387.771     280.512
  H      609.508     388.609     282.035
  P      608.880     392.683     283.158
  C      607.553     390.844     284.426
  O      607.498     392.052     283.678
  O      608.409     393.939     282.288
  O      609.867     393.060     284.207
  H      608.402     394.745     282.840
  H      606.562     390.549     284.701
  H      608.137     390.998     285.309
  H      608.002     390.076     283.831

 6  7  8  9  10  11  12  13  14  15  26  29  33  34 0
 6-311+G(2d,p)
 ****
 36  38  39  40  41 0
 6-311+G(2d,p)
 ****
 1  2  3  4  5  16  17  18  19  20  21  22  23  24  25 0
 3-21G
 ****
 27  28  30  31  32  35  37  42  43  44  45  46  47 0
 3-21G
 ****
 48  49 0
 3-21G
 ****


