%nproc=1
%NoSave
%Mem=1900MB
#P OB98/GEN NMR

erre ene a

0 1
  C      -48.834     -48.617    -198.281
  O      -49.225     -49.564    -197.306
  H      -48.048     -47.985    -197.859
  H      -49.679     -47.983    -198.560
  H      -48.439     -49.121    -199.167
  P      -50.376     -50.610    -197.686
  C      -49.002     -52.222    -196.210
  O      -50.297     -51.771    -196.582
  C      -49.092     -53.100    -194.968
  O      -49.971     -54.217    -195.204
  C      -47.753     -53.687    -194.525
  O      -47.013     -52.731    -193.785
  C      -48.231     -54.858    -193.682
  O      -48.688     -54.380    -192.403
  C      -49.419     -55.372    -194.513
  N      -51.085     -59.383    -197.126
  C      -51.712     -58.642    -196.144
  N      -52.944     -59.057    -195.778
  N      -51.173     -57.603    -195.561
  C      -49.912     -57.350    -195.980
  C      -49.180     -58.022    -196.932
  C      -49.808     -59.136    -197.610
  O      -49.293     -59.809    -198.497
  N      -47.911     -57.514    -197.042
  C      -47.889     -56.512    -196.185
  N      -49.076     -56.380    -195.504
  O      -50.373     -51.118    -199.097
  O      -51.732     -49.846    -197.324
  H      -49.031     -55.156    -191.923
  H      -52.087     -49.371    -198.097
  H      -51.545     -60.185    -197.523
  H      -47.046     -55.853    -196.021
  H      -50.214     -55.792    -193.888
  H      -47.454     -55.598    -193.495
  H      -53.275     -59.992    -195.980
  H      -47.183     -54.080    -195.373
  H      -53.399     -58.558    -195.025
  H      -49.542     -52.502    -194.165
  H      -48.389     -51.337    -196.010
  H      -48.546     -52.788    -197.028
  P      -45.412     -52.659    -193.894
  C      -45.367     -50.472    -192.519
  O      -44.947     -51.826    -192.606
  O      -44.895     -52.139    -195.192
  O      -44.919     -54.136    -193.547
  H      -44.869     -54.731    -194.336
  H      -44.989     -50.039    -191.617
  H      -46.436     -50.430    -192.514
  H      -44.992     -49.928    -193.360

 6  7  8  9  10  11  12  13  14  15  26  29  33  34 0
 6-311+G(2d,p)
 ****
 36  38  39  40  41 0
 6-311+G(2d,p)
 ****
 1  2  3  4  5  16  17  18  19  20  21  22  23  24  25 0
 3-21G
 ****
 27  28  30  31  32  35  37  42  43  44  45  46  47 0
 3-21G
 ****
 48  49 0
 3-21G
 ****


