%nproc=1
%NoSave
%Mem=1900MB
#P OB98/GEN NMR

erre ene a

0 1
  C      -33.419      -4.703      17.228
  O      -34.486      -4.029      16.585
  P      -34.536      -2.428      16.659
  C      -32.913      -0.567      15.763
  O      -33.095      -1.905      16.185
  C      -31.782       0.092      16.559
  O      -32.246       0.349      17.913
  C      -30.504      -0.751      16.665
  O      -29.395       0.156      16.647
  C      -30.641      -1.399      18.031
  O      -29.396      -1.824      18.563
  C      -31.310      -0.267      18.818
  N      -31.992      -0.724      20.029
  C      -31.286      -0.687      21.227
  O      -30.119      -0.314      21.323
  N      -31.968      -1.129      22.331
  C      -33.227      -1.653      22.346
  O      -33.781      -2.050      23.362
  C      -33.905      -1.712      21.043
  C      -33.272      -1.244      19.967
  O      -34.537      -2.190      18.239
  O      -35.690      -1.829      15.931
  H      -33.995      -2.838      18.722
  H      -28.835      -1.037      18.684
  H      -31.487      -1.076      23.218
  H      -34.901      -2.135      21.011
  H      -33.751      -1.278      18.996
  H      -30.568       0.496      19.082
  H      -31.296      -2.274      17.955
  H      -30.409      -1.472      15.849
  H      -31.561       1.065      16.102
  H      -33.836      -0.005      15.926
  H      -32.694      -0.553      14.691
  P      -27.984      -0.381      16.088
  C      -27.169      -1.230      13.751
  O      -28.245      -0.974      14.624
  O      -27.811      -1.703      16.983
  O      -26.845       0.571      16.236
  H      -28.609      -2.255      16.998
  H      -27.504      -1.921      12.973
  H      -26.324      -1.681      14.277
  H      -26.850      -0.297      13.278
  H      -33.528      -5.758      17.088
  H      -33.434      -4.479      18.274
  H      -32.489      -4.381      16.808

 3  4  5  6  7  8  9  10  11  12  13  24  28  29  30  31  32 0
 6-311+G(2d,p)
 ****
 33  34 0
 6-311+G(2d,p)
 ****
 1  2  14  15  16  17  18  19  20  21  22  23  25  26  27 0
 3-21G
 ****
 35  36  37  38  39  40  41  42  43  44  45 0
 3-21G
 ****


