%nproc=1
%NoSave
%Mem=1900MB
#P OB98/GEN NMR

erre ene a

0 1
  C      -16.103    -601.500    -146.915
  O      -15.050    -601.459    -147.863
  P      -13.962    -600.286    -147.710
  C      -14.102    -597.748    -147.159
  O      -14.797    -598.933    -147.542
  C      -15.084    -596.667    -146.728
  O      -15.901    -597.145    -145.647
  C      -14.424    -595.400    -146.216
  O      -13.947    -594.617    -147.297
  C      -15.567    -594.758    -145.443
  O      -16.396    -593.957    -146.310
  C      -16.344    -595.980    -144.911
  N      -16.186    -596.161    -143.477
  C      -17.326    -595.910    -142.701
  O      -18.368    -595.537    -143.237
  N      -17.235    -596.048    -141.340
  C      -16.108    -596.398    -140.799
  N      -16.082    -596.524    -139.444
  C      -14.880    -596.653    -141.579
  C      -14.988    -596.515    -142.895
  O      -13.347    -600.169    -149.180
  O      -12.918    -600.540    -146.671
  H      -17.187    -593.733    -145.778
  H      -12.432    -599.816    -149.146
  H      -13.971    -596.945    -141.082
  H      -14.136    -596.678    -143.547
  H      -17.416    -595.876    -145.122
  H      -15.206    -594.090    -144.655
  H      -13.602    -595.642    -145.534
  H      -15.748    -596.446    -147.582
  H      -16.937    -596.336    -138.935
  H      -13.523    -597.380    -148.013
  H      -15.261    -596.816    -138.930
  H      -13.409    -597.992    -146.345
  P      -13.006    -593.371    -146.955
  C      -13.444    -591.562    -145.192
  O      -13.981    -592.292    -146.278
  O      -12.747    -592.733    -148.404
  O      -11.734    -593.660    -146.231
  H      -12.096    -592.009    -148.338
  H      -14.142    -590.762    -144.926
  H      -12.482    -591.114    -145.465
  H      -13.320    -592.218    -144.324
  H      -16.749    -602.325    -147.135
  H      -16.661    -600.588    -146.962
  H      -15.695    -601.618    -145.933

 3  4  5  6  7  8  9  10  11  12  13  21  23  27  28  29  30  32 0
 6-311+G(2d,p)
 ****
 34  35 0
 6-311+G(2d,p)
 ****
 1  2  14  15  16  17  18  19  20  22  24  25  26 0
 3-21G
 ****
 31  33  36  37  38  39  40  41  42  43  44  45  46 0
 3-21G
 ****


