%nproc=1
%NoSave
%Mem=1900MB
#P OB98/GEN NMR

erre ene a

0 1
  C      149.813     520.086     476.766
  O      149.136     518.880     477.086
  H      149.626     520.813     477.566
  H      149.438     520.499     475.827
  H      150.890     519.913     476.697
  P      149.249     517.657     476.059
  C      149.609     515.691     477.698
  O      150.209     516.580     476.762
  C      150.614     514.630     478.136
  O      151.859     515.247     478.522
  C      150.155     513.794     479.327
  O      149.268     512.769     478.899
  C      151.489     513.266     479.826
  O      151.938     512.196     478.971
  C      152.395     514.498     479.649
  N      154.795     515.524     484.000
  C      154.994     514.491     483.097
  N      155.935     513.583     483.430
  N      154.307     514.353     481.994
  C      153.361     515.303     481.829
  C      153.061     516.362     482.653
  C      153.855     516.535     483.852
  O      153.728     517.444     484.667
  N      151.979     517.078     482.192
  C      151.650     516.467     481.067
  N      152.449     515.377     480.809
  O      149.658     518.004     474.657
  O      147.810     516.966     476.118
  H      151.315     511.458     479.093
  H      147.216     517.321     475.428
  H      155.343     515.564     484.845
  H      150.857     516.778     480.406
  H      153.430     514.223     479.406
  H      151.445     512.869     480.843
  H      156.270     513.478     484.377
  H      149.711     514.412     480.111
  H      156.052     512.790     482.806
  H      150.828     513.993     477.269
  H      148.749     515.226     477.206
  H      149.252     516.249     478.574
  P      147.719     512.766     479.350
  C      146.795     512.480     476.949
  O      146.923     513.337     478.078
  O      147.440     513.480     480.628
  O      147.310     511.225     479.357
  H      147.478     510.771     480.222
  H      146.247     512.983     476.180
  H      146.274     511.590     477.234
  H      147.768     512.223     476.584

 6  7  8  9  10  11  12  13  14  15  26  29  33  34 0
 6-311+G(2d,p)
 ****
 36  38  39  40  41 0
 6-311+G(2d,p)
 ****
 1  2  3  4  5  16  17  18  19  20  21  22  23  24  25 0
 3-21G
 ****
 27  28  30  31  32  35  37  42  43  44  45  46  47 0
 3-21G
 ****
 48  49 0
 3-21G
 ****


