%nproc=1
%NoSave
%Mem=1900MB
#P OB98/GEN NMR

erre ene a

0 1
  C      653.548     448.255     -13.764
  O      654.720     449.073     -13.641
  P      656.099     448.756     -14.415
  C      656.886     446.760     -12.974
  O      656.454     447.195     -14.254
  C      658.038     445.746     -13.067
  O      658.567     445.467     -11.740
  C      657.648     444.404     -13.704
  O      658.763     443.999     -14.516
  C      657.493     443.512     -12.478
  O      657.543     442.119     -12.771
  C      658.656     444.032     -11.628
  N      658.641     443.607     -10.222
  C      659.625     442.710      -9.804
  O      660.440     442.235     -10.588
  N      659.652     442.344      -8.468
  C      658.775     442.826      -7.647
  N      658.865     442.435      -6.337
  C      657.709     443.767      -8.055
  C      657.705     444.114      -9.336
  O      657.226     449.665     -14.016
  O      655.766     448.920     -15.968
  H      656.540     449.298     -16.426
  H      657.650     441.639     -11.937
  H      657.002     444.155      -7.333
  H      656.977     444.824      -9.715
  H      659.608     443.722     -12.087
  H      656.518     443.712     -12.017
  H      656.760     444.457     -14.338
  H      658.856     446.221     -13.632
  H      659.610     441.795      -6.098
  H      656.037     446.283     -12.464
  H      658.238     442.758      -5.617
  H      657.185     447.630     -12.377
  P      658.693     444.146     -16.110
  C      658.559     441.571     -16.534
  O      657.952     442.835     -16.688
  O      660.215     443.869     -16.542
  O      658.231     445.474     -16.627
  H      660.385     444.315     -17.387
  H      657.803     440.842     -16.220
  H      659.378     441.583     -15.797
  H      658.963     441.258     -17.507
  H      652.764     448.662     -13.161
  H      653.771     447.261     -13.436
  H      653.235     448.231     -14.787

 3  4  5  6  7  8  9  10  11  12  13  24  27  28  29  30  32 0
 6-311+G(2d,p)
 ****
 34  35 0
 6-311+G(2d,p)
 ****
 1  2  14  15  16  17  18  19  20  21  22  23  25  26 0
 3-21G
 ****
 31  33  36  37  38  39  40  41  42  43  44  45  46 0
 3-21G
 ****


