%nproc=1
%NoSave
%Mem=1900MB
#P OB98/GEN NMR

erre ene a

0 1
  C      375.420     241.075     -32.183
  O      376.034     242.266     -32.638
  H      375.347     241.118     -31.093
  H      376.020     240.207     -32.458
  H      374.412     240.978     -32.599
  P      376.260     242.445     -34.214
  C      373.823     242.479     -35.081
  O      374.974     243.247     -34.755
  C      372.678     243.397     -35.473
  O      372.126     244.048     -34.315
  C      373.079     244.514     -36.442
  O      373.136     244.022     -37.768
  C      371.947     245.502     -36.210
  O      370.763     245.055     -36.891
  C      371.758     245.404     -34.689
  N      372.095     250.128     -32.872
  C      371.141     249.554     -33.686
  N      370.147     250.372     -34.110
  N      371.157     248.305     -34.066
  C      372.243     247.630     -33.621
  C      373.263     248.087     -32.830
  C      373.202     249.464     -32.364
  O      374.020     250.002     -31.634
  N      374.226     247.128     -32.643
  C      373.766     246.077     -33.286
  N      372.569     246.336     -33.912
  O      376.565     241.200     -34.987
  O      377.434     243.526     -34.317
  H      370.669     244.104     -36.695
  H      378.309     243.091     -34.371
  H      372.035     251.104     -32.629
  H      374.255     245.112     -33.338
  H      370.713     245.557     -34.390
  H      372.171     246.502     -36.575
  H      370.237     251.379     -34.080
  H      374.025     244.991     -36.146
  H      369.454     249.988     -34.743
  H      371.877     242.780     -35.904
  H      373.557     241.890     -34.193
  H      374.045     241.792     -35.904
  P      373.875     244.845     -38.933
  C      376.240     243.796     -38.879
  O      374.968     243.836     -39.527
  O      374.420     246.171     -38.511
  O      372.805     244.938     -40.112
  H      372.202     245.719     -40.042
  H      376.870     243.086     -39.373
  H      376.111     243.507     -37.857
  H      376.693     244.765     -38.922

 6  7  8  9  10  11  12  13  14  15  26  29  33  34 0
 6-311+G(2d,p)
 ****
 36  38  39  40  41 0
 6-311+G(2d,p)
 ****
 1  2  3  4  5  16  17  18  19  20  21  22  23  24  25 0
 3-21G
 ****
 27  28  30  31  32  35  37  42  43  44  45  46  47 0
 3-21G
 ****
 48  49 0
 3-21G
 ****


