%nproc=1
%NoSave
%Mem=1900MB
#P OB98/GEN NMR

erre ene a

0 1
  C     -286.859     205.777     -74.427
  O     -287.584     204.854     -73.637
  H     -287.564     206.336     -75.046
  H     -286.163     205.244     -75.078
  H     -286.313     206.478     -73.788
  P     -286.753     204.056     -72.514
  C     -288.920     203.564     -71.119
  O     -287.805     203.059     -71.833
  C     -289.886     204.275     -72.067
  O     -290.400     203.307     -73.016
  C     -291.080     204.918     -71.363
  O     -291.392     206.145     -72.023
  C     -292.201     203.916     -71.574
  O     -293.486     204.529     -71.483
  C     -291.841     203.335     -72.946
  N     -292.408     202.005     -73.154
  C     -293.789     201.874     -72.970
  O     -294.463     202.845     -72.629
  N     -294.365     200.638     -73.134
  C     -293.620     199.609     -73.388
  N     -294.248     198.409     -73.518
  C     -292.153     199.691     -73.537
  C     -291.621     200.909     -73.420
  O     -286.531     205.193     -71.409
  O     -285.498     203.426     -73.017
  H     -294.163     203.818     -71.532
  H     -287.314     205.749     -71.260
  H     -291.573     198.799     -73.735
  H     -290.553     201.060     -73.523
  H     -292.202     203.994     -73.750
  H     -292.149     203.133     -70.805
  H     -290.909     205.109     -70.303
  H     -289.320     205.014     -72.644
  H     -295.252     198.392     -73.390
  H     -288.589     204.262     -70.344
  H     -293.763     197.537     -73.662
  H     -289.418     202.720     -70.631
  P     -292.034     207.347     -71.185
  C     -290.822     209.618     -71.350
  O     -291.753     208.730     -71.953
  O     -291.724     207.362     -69.724
  O     -293.612     207.142     -71.421
  H     -294.069     207.350     -70.583
  H     -290.724     210.496     -71.954
  H     -289.871     209.135     -71.266
  H     -291.170     209.892     -70.376

 6  7  8  9  10  11  12  13  14  15  16  26  30  31  32  33  35 0
 6-311+G(2d,p)
 ****
 37  38 0
 6-311+G(2d,p)
 ****
 1  2  3  4  5  17  18  19  20  21  22  23  24  25 0
 3-21G
 ****
 27  28  29  34  36  39  40  41  42  43  44  45  46 0
 3-21G
 ****


