%nproc=1
%NoSave
%Mem=1900MB
#P OB98/GEN NMR

erre ene a

0 1
  C     -459.389    -481.169     412.059
  O     -459.703    -479.779     412.167
  P     -459.632    -478.824     410.878
  C     -457.926    -477.023     411.508
  O     -459.312    -477.322     411.359
  C     -457.643    -475.971     412.595
  O     -458.241    -474.698     412.252
  C     -458.147    -476.343     413.997
  O     -457.211    -475.775     414.915
  C     -459.480    -475.614     414.061
  O     -459.952    -475.448     415.396
  C     -459.144    -474.321     413.307
  N     -460.333    -473.648     412.801
  C     -461.107    -472.938     413.715
  O     -460.811    -472.945     414.909
  N     -462.224    -472.278     413.265
  C     -462.591    -472.401     412.032
  N     -463.720    -471.742     411.653
  C     -461.845    -473.211     411.041
  C     -460.736    -473.790     411.490
  O     -460.796    -478.943     409.948
  O     -458.276    -479.269     410.144
  H     -460.642    -474.752     415.388
  H     -458.370    -479.128     409.183
  H     -462.204    -473.306     410.026
  H     -460.121    -474.401     410.842
  H     -458.608    -473.619     413.966
  H     -460.241    -476.188     413.508
  H     -458.249    -477.421     414.151
  H     -456.559    -475.816     412.624
  H     -464.214    -471.222     412.365
  H     -457.544    -476.655     410.551
  H     -464.154    -471.858     410.748
  H     -457.385    -477.946     411.741
  P     -455.861    -476.528     415.326
  C     -455.685    -474.948     417.341
  O     -455.018    -475.503     416.222
  O     -455.104    -477.136     414.196
  O     -456.324    -477.644     416.390
  H     -455.622    -478.308     416.471
  H     -454.955    -474.446     417.981
  H     -456.187    -475.736     417.918
  H     -456.430    -474.217     417.001
  H     -459.493    -481.634     413.017
  H     -458.382    -481.282     411.716
  H     -460.057    -481.633     411.363

 3  4  5  6  7  8  9  10  11  12  13  23  27  28  29  30  32 0
 6-311+G(2d,p)
 ****
 34  35 0
 6-311+G(2d,p)
 ****
 1  2  14  15  16  17  18  19  20  21  22  24  25  26 0
 3-21G
 ****
 31  33  36  37  38  39  40  41  42  43  44  45  46 0
 3-21G
 ****


