%nproc=1
%NoSave
%Mem=1900MB
#P OB98/GEN NMR

erre ene a

0 1
  C       96.682     170.171     170.227
  O       96.835     171.531     169.870
  H       97.383     169.575     169.635
  H       95.664     169.838     170.005
  H       96.902     170.026     171.286
  P       96.025     172.601     170.758
  C       97.965     173.360     172.358
  O       97.123     173.661     171.257
  C       99.093     174.388     172.465
  O      100.199     173.953     171.637
  C       98.694     175.795     172.012
  O       99.348     176.748     172.856
  C       99.251     175.884     170.601
  O       99.472     177.234     170.199
  C      100.513     175.014     170.713
  N      100.940     174.485     169.417
  C      101.352     175.417     168.460
  O      101.325     176.624     168.715
  N      101.741     174.971     167.224
  C      101.662     173.704     166.939
  N      102.046     173.329     165.687
  C      101.185     172.692     167.902
  C      100.854     173.143     169.108
  O       95.690     171.748     172.069
  O       94.834     173.186     170.073
  H       99.720     177.233     169.246
  H       96.427     171.191     172.370
  H      101.122     171.650     167.613
  H      100.499     172.466     169.878
  H      101.343     175.592     171.139
  H       98.548     175.436     169.890
  H       97.619     175.966     172.028
  H       99.458     174.393     173.499
  H      102.349     174.059     165.053
  H       98.393     172.359     172.247
  H      101.974     172.384     165.342
  H       97.352     173.372     173.265
  P       98.490     177.935     173.506
  C       97.563     176.980     175.714
  O       98.544     177.806     175.104
  O       97.126     178.140     172.930
  O       99.411     179.227     173.237
  H       98.824     179.975     173.010
  H       97.707     176.978     176.774
  H       97.655     175.982     175.340
  H       96.588     177.358     175.487

 6  7  8  9  10  11  12  13  14  15  16  26  30  31  32  33  35 0
 6-311+G(2d,p)
 ****
 37  38 0
 6-311+G(2d,p)
 ****
 1  2  3  4  5  17  18  19  20  21  22  23  24  25 0
 3-21G
 ****
 27  28  29  34  36  39  40  41  42  43  44  45  46 0
 3-21G
 ****


