%nproc=1
%NoSave
%Mem=1900MB
#P OB98/GEN NMR

erre ene a

0 1
  C     -393.092    -209.575     337.226
  O     -394.283    -209.703     336.480
  H     -392.340    -209.091     336.598
  H     -392.726    -210.567     337.509
  H     -393.243    -208.969     338.123
  P     -395.654    -209.965     337.263
  C     -396.238    -211.864     335.617
  O     -396.676    -210.662     336.241
  C     -396.625    -211.910     334.136
  O     -398.042    -211.671     333.984
  C     -395.922    -210.826     333.317
  O     -394.616    -211.149     332.875
  C     -396.877    -210.662     332.135
  O     -396.591    -211.629     331.111
  C     -398.244    -210.933     332.765
  N     -400.643    -206.837     330.868
  C     -399.925    -207.812     330.201
  N     -399.783    -207.642     328.868
  N     -399.388    -208.846     330.795
  C     -399.532    -208.832     332.142
  C     -400.204    -207.916     332.915
  C     -400.846    -206.801     332.243
  O     -401.486    -205.911     332.788
  N     -400.141    -208.239     334.251
  C     -399.366    -209.302     334.289
  N     -398.993    -209.719     333.032
  O     -396.279    -208.494     337.427
  O     -395.516    -210.640     338.594
  H     -397.348    -211.653     330.495
  H     -396.861    -208.465     338.207
  H     -401.058    -206.080     330.359
  H     -399.066    -209.825     335.193
  H     -398.869    -211.559     332.115
  H     -396.785    -209.676     331.676
  H     -400.080    -206.804     328.388
  H     -395.902    -209.880     333.874
  H     -399.055    -208.178     328.394
  H     -396.417    -212.911     333.741
  H     -396.712    -212.686     336.150
  H     -395.158    -211.978     335.733
  P     -393.457    -210.044     332.929
  C     -392.806    -209.953     330.411
  O     -392.456    -210.357     331.717
  O     -392.628    -210.472     334.229
  O     -393.933    -208.638     333.012
  H     -392.913    -209.948     335.001
  H     -392.032    -210.239     329.730
  H     -392.928    -208.890     330.387
  H     -393.724    -210.424     330.126

 6  7  8  9  10  11  12  13  14  15  26  29  33  34 0
 6-311+G(2d,p)
 ****
 36  38  39  40  41 0
 6-311+G(2d,p)
 ****
 1  2  3  4  5  16  17  18  19  20  21  22  23  24  25 0
 3-21G
 ****
 27  28  30  31  32  35  37  42  43  44  45  46  47 0
 3-21G
 ****
 48  49 0
 3-21G
 ****


