%nproc=1
%NoSave
%Mem=1900MB
#P OB98/GEN NMR

erre ene a

0 1
  C      310.158     -37.760      88.791
  O      311.522     -37.605      89.202
  P      311.950     -38.196      90.630
  C      311.998     -37.353      93.093
  O      311.539     -37.139      91.767
  C      311.062     -36.677      94.100
  O      311.346     -35.269      94.234
  C      309.592     -36.754      93.717
  O      309.023     -38.004      94.083
  C      309.004     -35.639      94.566
  O      308.821     -36.097      95.919
  C      310.108     -34.576      94.513
  N      309.180     -29.611      93.645
  C      309.302     -30.319      94.789
  N      309.532     -31.642      94.939
  C      309.653     -32.240      93.745
  C      309.551     -31.651      92.494
  C      309.302     -30.270      92.465
  N      309.182     -29.553      91.296
  N      309.719     -32.588      91.497
  C      309.934     -33.721      92.130
  N      309.895     -33.563      93.490
  O      313.547     -38.096      90.599
  O      311.494     -39.597      90.867
  H      309.705     -36.325      96.265
  H      313.935     -38.845      91.087
  H      309.205     -29.748      95.708
  H      310.126     -34.673      91.655
  H      310.228     -34.051      95.469
  H      308.025     -35.308      94.208
  H      309.452     -36.531      92.650
  H      311.213     -37.154      95.077
  H      313.015     -36.962      93.207
  H      309.032     -28.558      91.358
  H      309.294     -30.035      90.418
  H      312.059     -38.430      93.279
  P      309.018     -39.163      92.974
  C      307.270     -39.998      91.241
  O      307.567     -39.102      92.294
  O      308.982     -40.500      93.851
  O      310.182     -39.132      92.042
  H      309.434     -41.225      93.376
  H      306.187     -40.038      91.109
  H      307.631     -41.007      91.465
  H      307.727     -39.643      90.315
  H      310.024     -37.319      87.825
  H      309.516     -37.275      89.496
  H      309.916     -38.801      88.745

 3  4  5  6  7  8  9  10  11  12  22  25  29  30  31  32 0
 6-311+G(2d,p)
 ****
 33  36  37 0
 6-311+G(2d,p)
 ****
 1  2  13  14  15  16  17  18  19  20  21  23  24  26 0
 3-21G
 ****
 27  28  34  35  38  39  40  41  42  43  44  45  46  47  48 0
 3-21G
 ****


