%nproc=1
%NoSave
%Mem=1900MB
#P OB98/GEN NMR

erre ene a

0 1
  C     -453.037     222.320     -48.404
  O     -453.586     223.150     -47.397
  H     -453.833     222.028     -49.094
  H     -452.606     221.418     -47.955
  H     -452.265     222.860     -48.962
  P     -452.568     223.709     -46.289
  C     -452.945     222.313     -44.126
  O     -452.212     222.470     -45.337
  C     -452.002     221.887     -43.006
  O     -451.168     220.797     -43.457
  C     -451.042     222.981     -42.557
  O     -451.654     223.923     -41.703
  C     -449.958     222.158     -41.878
  O     -450.314     221.836     -40.524
  C     -449.918     220.884     -42.732
  N     -444.941     219.853     -43.234
  C     -445.801     219.667     -42.211
  N     -447.123     219.962     -42.160
  C     -447.537     220.467     -43.332
  C     -446.777     220.706     -44.464
  C     -445.414     220.376     -44.390
  N     -444.532     220.583     -45.426
  N     -447.553     221.270     -45.458
  C     -448.762     221.363     -44.941
  N     -448.799     220.886     -43.659
  O     -453.503     224.636     -45.378
  O     -451.395     224.457     -46.828
  H     -449.858     220.998     -40.315
  H     -453.378     225.570     -45.629
  H     -445.375     219.246     -41.307
  H     -449.631     221.771     -45.444
  H     -449.835     219.976     -42.122
  H     -449.013     222.699     -41.853
  H     -450.606     223.478     -43.435
  H     -452.604     221.528     -42.157
  H     -453.714     221.547     -44.267
  H     -453.432     223.263     -43.881
  H     -443.556     220.386     -45.278
  H     -444.852     221.077     -46.251
  P     -450.926     225.341     -41.506
  C     -450.265     224.860     -39.029
  O     -449.829     225.156     -40.349
  O     -452.047     226.256     -40.824
  O     -450.401     225.945     -42.767
  H     -451.962     227.180     -41.151
  H     -449.416     224.769     -38.385
  H     -450.811     223.940     -39.032
  H     -450.897     225.648     -38.677

 6  7  8  9  10  11  12  13  14  15  25  28  32  33  34  35 0
 6-311+G(2d,p)
 ****
 36  37  40 0
 6-311+G(2d,p)
 ****
 1  2  3  4  5  16  17  18  19  20  21  22  23  24 0
 3-21G
 ****
 26  27  29  30  31  38  39 41  42  43  44  45  46  47  48 0
 3-21G
 ****


