%nproc=1
%NoSave
%Mem=1900MB
#P OB98/GEN NMR

erre ene a

0 1
  C       62.684     -87.575      22.550
  O       63.669     -88.126      23.420
  P       64.777     -89.190      22.994
  C       63.478     -91.342      23.766
  O       64.059     -90.590      22.709
  C       64.034     -92.773      23.796
  O       63.416     -93.537      22.717
  C       65.550     -92.820      23.573
  O       66.223     -93.742      24.423
  C       65.665     -93.048      22.075
  O       66.926     -93.561      21.676
  C       64.457     -93.938      21.795
  N       64.494     -96.002      17.127
  C       65.250     -96.329      18.234
  N       66.145     -97.327      18.082
  N       65.148     -95.722      19.387
  C       64.273     -94.694      19.382
  C       63.478     -94.262      18.345
  C       63.561     -94.973      17.087
  O       62.900     -94.736      16.080
  N       62.706     -93.192      18.719
  C       63.047     -92.964      19.971
  N       63.991     -93.858      20.423
  O       66.007     -89.224      23.837
  O       65.217     -88.710      21.517
  H       67.041     -94.432      22.100
  H       66.162     -88.947      21.423
  H       64.596     -96.517      16.270
  H       62.636     -92.181      20.598
  H       64.673     -94.994      21.975
  H       65.544     -92.074      21.582
  H       66.361     -97.751      17.194
  H       66.010     -91.858      23.825
  H       66.844     -97.413      18.822
  H       63.753     -93.241      24.746
  H       62.402     -91.365      23.563
  H       63.623     -90.840      24.723
  P       66.668     -93.554      25.945
  C       68.924     -92.560      25.242
  O       67.755     -92.382      26.018
  O       67.526     -94.859      26.291
  O       65.538     -93.409      26.911
  H       67.092     -95.358      27.012
  H       69.681     -91.846      25.577
  H       68.698     -92.368      24.189
  H       69.316     -93.573      25.358
  H       62.071     -86.888      23.095
  H       62.075     -88.362      22.157
  H       63.166     -87.061      21.745

 3  4  5  6  7  8  9  10  11  12  23  26  30  31 0
 6-311+G(2d,p)
 ****
 33  35  36  37  38 0
 6-311+G(2d,p)
 ****
 1  2  13  14  15  16  17  18  19  20  21  22  24  25 0
 3-21G
 ****
 27  28  29  32  34  39  40  41  42  43  44  45  46  47  48  49 0
 3-21G
 ****


