%nproc=1
%NoSave
%Mem=1900MB
#P OB98/GEN NMR

erre ene a

0 1
  C      218.466       2.997    -197.452
  O      217.810       1.790    -197.113
  H      219.263       2.772    -198.169
  H      218.918       3.446    -196.562
  H      217.774       3.702    -197.911
  P      216.501       1.856    -196.191
  C      215.937       2.655    -193.803
  O      216.948       2.476    -194.783
  C      216.492       2.321    -192.417
  O      217.679       3.095    -192.153
  C      215.524       2.617    -191.281
  O      214.510       1.638    -191.192
  C      216.479       2.656    -190.097
  O      216.783       1.326    -189.641
  C      217.733       3.322    -190.719
  N      217.823       4.750    -190.413
  C      218.209       5.077    -189.119
  O      218.429       4.237    -188.243
  N      218.305       6.420    -188.845
  C      217.951       7.432    -189.683
  O      217.970       8.616    -189.364
  C      217.530       7.028    -191.032
  C      217.483       5.726    -191.331
  O      215.708       0.596    -196.101
  O      215.643       3.041    -196.847
  H      217.572       1.408    -189.071
  H      214.897       2.661    -197.345
  H      218.566       6.673    -187.911
  H      217.250       7.799    -191.732
  H      217.172       5.406    -192.324
  H      218.645       2.833    -190.358
  H      216.069       3.199    -189.246
  H      215.092       3.618    -191.406
  H      216.774       1.256    -192.416
  H      215.102       1.982    -194.034
  H      215.582       3.696    -193.837
  P      213.175       1.947    -190.371
  C      212.658       2.722    -187.973
  O      213.584       2.765    -189.051
  O      212.274       0.774    -190.132
  O      212.430       3.056    -191.261
  H      211.550       2.716    -191.540
  H      213.036       3.299    -187.155
  H      212.521       1.708    -187.661
  H      211.720       3.127    -188.292

 6  7  8  9  10  11  12  13  14  15  16  26  31  32  33  34  35 0
 6-311+G(2d,p)
 ****
 36  37 0
 6-311+G(2d,p)
 ****
 1  2  3  4  5  17  18  19  20  21  22  23  24  25 0
 3-21G
 ****
 27  28  29  30  38  39  40  41  42  43  44  45 0
 3-21G
 ****


