%nproc=1
%NoSave
%Mem=1900MB
#P OB98/GEN NMR

erre ene a

0 1
  C      257.172    -890.500    -170.692
  O      255.878    -891.000    -170.995
  P      255.459    -892.490    -170.577
  C      256.387    -893.540    -172.741
  O      255.242    -893.340    -171.927
  C      256.277    -894.850    -173.512
  O      256.408    -895.980    -172.627
  C      254.939    -895.040    -174.210
  O      254.807    -894.210    -175.359
  C      254.975    -896.530    -174.507
  O      255.753    -896.810    -175.675
  C      255.679    -897.080    -173.242
  N      254.755    -897.720    -172.311
  C      255.323    -898.600    -171.397
  O      256.511    -898.890    -171.457
  N      254.500    -899.160    -170.436
  C      253.225    -898.940    -170.480
  N      252.471    -899.480    -169.484
  C      252.584    -898.130    -171.532
  C      253.400    -897.530    -172.397
  O      254.363    -892.590    -169.587
  O      256.822    -893.120    -169.995
  H      256.628    -893.530    -169.128
  H      255.648    -897.770    -175.863
  H      251.502    -898.050    -171.570
  H      253.005    -896.900    -173.195
  H      256.453    -897.810    -173.529
  H      253.968    -896.960    -174.672
  H      254.121    -894.830    -173.511
  H      257.099    -894.880    -174.236
  H      252.956    -900.000    -168.769
  H      257.277    -893.570    -172.097
  H      251.561    -899.100    -169.242
  H      256.489    -892.690    -173.420
  P      253.478    -893.330    -175.447
  C      252.449    -894.830    -177.295
  O      252.852    -893.540    -176.927
  O      254.027    -891.820    -175.474
  O      252.502    -893.520    -174.330
  H      253.421    -891.240    -174.985
  H      251.753    -894.730    -178.139
  H      251.923    -895.340    -176.482
  H      253.319    -895.410    -177.603
  H      257.259    -889.495    -171.049
  H      257.911    -891.112    -171.166
  H      257.322    -890.516    -169.633

 3  4  5  6  7  8  9  10  11  12  13  24  27  28  29  30  32 0
 6-311+G(2d,p)
 ****
 34  35 0
 6-311+G(2d,p)
 ****
 1  2  14  15  16  17  18  19  20  21  22  23  25  26 0
 3-21G
 ****
 31  33  36  37  38  39  40  41  42  43  44  45  46 0
 3-21G
 ****


