%nproc=1
%NoSave
%Mem=1900MB
#P OB98/GEN NMR

erre ene a

0 1
  C      -26.336     181.099    -500.946
  O      -27.212     179.992    -501.110
  P      -28.718     180.197    -501.630
  C      -29.337     180.407    -499.128
  O      -29.471     180.959    -500.436
  C      -30.028     181.313    -498.113
  O      -29.226     182.496    -497.892
  C      -31.397     181.821    -498.547
  O      -32.385     180.807    -498.413
  C      -31.561     183.026    -497.623
  O      -31.977     182.604    -496.317
  C      -30.125     183.584    -497.560
  N      -29.914     184.721    -498.464
  C      -28.650     185.315    -498.418
  O      -27.771     184.882    -497.667
  N      -28.380     186.366    -499.265
  C      -29.313     186.812    -500.059
  N      -28.972     187.812    -500.919
  C      -30.676     186.251    -500.095
  C      -30.897     185.212    -499.285
  O      -29.392     178.955    -502.107
  O      -28.603     181.342    -502.748
  H      -32.879     182.241    -496.408
  H      -28.420     180.987    -503.653
  H      -31.419     186.660    -500.771
  H      -31.875     184.731    -499.263
  H      -29.877     183.883    -496.539
  H      -32.296     183.758    -497.992
  H      -31.367     182.157    -499.592
  H      -30.103     180.764    -497.159
  H      -27.984     188.038    -500.983
  H      -28.273     180.342    -498.880
  H      -29.528     188.006    -501.742
  H      -29.768     179.397    -499.114
  P      -33.776     181.015    -499.188
  C      -34.998     181.771    -497.018
  O      -34.592     182.113    -498.332
  O      -34.560     179.644    -498.915
  O      -33.628     181.318    -500.648
  H      -34.496     179.067    -499.701
  H      -35.308     182.683    -496.510
  H      -34.168     181.322    -496.457
  H      -35.843     181.088    -497.056
  H      -25.387     180.753    -500.594
  H      -26.753     181.782    -500.235
  H      -26.209     181.595    -501.885

 3  4  5  6  7  8  9  10  11  12  13  23  27  28  29  30  32 0
 6-311+G(2d,p)
 ****
 34  35 0
 6-311+G(2d,p)
 ****
 1  2  14  15  16  17  18  19  20  21  22  24  25  26 0
 3-21G
 ****
 31  33  36  37  38  39  40  41  42  43  44  45  46 0
 3-21G
 ****


