%nproc=1
%NoSave
%Mem=1900MB
#P OB98/GEN NMR

erre ene a

0 1
  C      177.709      40.717    -172.367
  O      177.734      42.080    -172.723
  H      176.789      40.522    -171.808
  H      178.558      40.474    -171.723
  H      177.719      40.084    -173.257
  P      179.002      42.660    -173.520
  C      178.469      42.040    -175.953
  O      178.438      43.068    -174.973
  C      179.066      42.549    -177.265
  O      179.380      41.420    -178.126
  C      178.130      43.480    -178.050
  O      178.850      44.636    -178.484
  C      177.727      42.648    -179.257
  O      177.329      43.439    -180.373
  C      178.988      41.800    -179.456
  N      178.744      40.650    -180.315
  C      179.712      40.391    -181.290
  O      180.706      41.114    -181.383
  N      179.508      39.359    -182.168
  C      178.409      38.675    -182.110
  N      178.255      37.684    -183.028
  C      177.347      38.931    -181.114
  C      177.580      39.921    -180.253
  O      180.193      41.763    -173.535
  O      179.294      44.082    -172.846
  H      177.266      42.857    -181.161
  H      180.231      44.331    -173.022
  H      176.447      38.335    -181.112
  H      176.857      40.184    -179.488
  H      179.798      42.399    -179.893
  H      176.883      42.001    -178.984
  H      177.261      43.799    -177.475
  H      180.021      43.041    -177.044
  H      179.005      37.547    -183.696
  H      177.447      41.677    -176.113
  H      177.434      37.102    -183.097
  H      179.087      41.220    -175.574
  P      179.182      45.729    -177.356
  C      181.317      44.946    -176.106
  O      180.772      45.750    -177.142
  O      178.618      45.060    -176.017
  O      178.554      47.058    -177.614
  H      177.829      45.544    -175.712
  H      182.380      45.063    -176.085
  H      181.075      43.919    -176.286
  H      180.906      45.249    -175.166

 6  7  8  9  10  11  12  13  14  15  16  26  30  31  32  33  35 0
 6-311+G(2d,p)
 ****
 37  38 0
 6-311+G(2d,p)
 ****
 1  2  3  4  5  17  18  19  20  21  22  23  24  25 0
 3-21G
 ****
 27  28  29  34  36  39  40  41  42  43  44  45  46 0
 3-21G
 ****


