%nproc=1
%NoSave
%Mem=1900MB
#P OB98/GEN NMR

erre ene a

0 1
  C     -196.311    -211.637     427.132
  O     -196.215    -213.023     426.830
  P     -197.079    -213.557     425.579
  C     -198.813    -214.908     426.992
  O     -198.564    -213.812     426.127
  C     -200.317    -215.202     427.037
  O     -201.017    -214.129     427.729
  C     -200.971    -215.315     425.668
  O     -200.774    -216.610     425.130
  C     -202.425    -215.011     426.001
  O     -203.093    -216.175     426.535
  C     -202.288    -213.917     427.064
  N     -205.312    -210.398     425.043
  C     -205.550    -211.740     425.302
  N     -206.792    -212.196     425.004
  N     -204.657    -212.555     425.788
  C     -203.463    -211.965     426.012
  C     -203.100    -210.647     425.790
  C     -204.108    -209.748     425.299
  O     -203.980    -208.537     425.144
  N     -201.785    -210.427     426.120
  C     -201.363    -211.593     426.574
  N     -202.366    -212.563     426.548
  O     -196.481    -215.030     425.331
  O     -197.004    -212.702     424.343
  H     -203.276    -216.810     425.814
  H     -195.828    -215.020     424.610
  H     -206.047    -209.817     424.682
  H     -200.375    -211.793     426.953
  H     -203.066    -213.992     427.851
  H     -203.001    -214.704     425.116
  H     -207.521    -211.621     424.606
  H     -200.579    -214.546     424.986
  H     -206.982    -213.176     425.182
  H     -200.467    -216.123     427.618
  H     -198.465    -214.665     428.000
  H     -198.255    -215.791     426.627
  P     -201.133    -216.841     423.578
  C     -203.092    -218.483     424.085
  O     -202.671    -217.256     423.513
  O     -200.358    -218.197     423.210
  O     -200.727    -215.712     422.679
  H     -200.031    -218.137     422.297
  H     -204.124    -218.390     424.440
  H     -202.449    -218.767     424.928
  H     -203.038    -219.265     423.317
  H     -195.694    -211.413     427.977
  H     -197.328    -211.391     427.357
  H     -195.983    -211.065     426.289

 3  4  5  6  7  8  9  10  11  12  23  26  30  31 0
 6-311+G(2d,p)
 ****
 33  35  36  37  38 0
 6-311+G(2d,p)
 ****
 1  2  13  14  15  16  17  18  19  20  21  22  24  25 0
 3-21G
 ****
 27  28  29  32  34  39  40  41  42  43  44  45  46  47  48  49 0
 3-21G
 ****


