%nproc=1
%NoSave
%Mem=1900MB
#P OB98/GEN NMR

erre ene a

0 1
  C     -366.700     196.761     -47.062
  O     -366.902     196.978     -48.462
  P     -367.871     195.974     -49.256
  C     -366.694     195.683     -51.611
  O     -367.742     196.223     -50.831
  C     -366.691     196.370     -52.991
  O     -368.029     196.417     -53.534
  C     -366.192     197.815     -52.953
  O     -364.778     197.888     -53.050
  C     -366.919     198.441     -54.124
  O     -366.280     198.082     -55.362
  C     -368.309     197.764     -54.009
  N     -369.312     198.384     -53.113
  C     -369.866     199.613     -53.443
  O     -369.574     200.263     -54.443
  N     -370.802     200.109     -52.565
  C     -371.365     199.431     -51.510
  O     -372.239     199.901     -50.800
  C     -370.849     198.071     -51.307
  C     -369.863     197.626     -52.084
  O     -369.339     196.503     -48.911
  O     -367.693     194.526     -48.893
  H     -366.305     197.104     -55.416
  H     -369.833     195.827     -48.398
  H     -371.163     201.029     -52.743
  H     -371.292     197.483     -50.511
  H     -369.482     196.617     -51.931
  H     -368.778     197.669     -54.999
  H     -366.894     199.539     -54.073
  H     -366.542     198.310     -52.035
  H     -366.062     195.785     -53.676
  H     -366.813     194.609     -51.737
  H     -365.739     195.849     -51.112
  P     -363.881     197.970     -51.728
  C     -362.141     199.347     -53.026
  O     -362.368     198.200     -52.234
  O     -364.072     196.873     -50.728
  O     -364.264     199.413     -51.105
  H     -364.953     199.329     -50.417
  H     -361.063     199.450     -53.179
  H     -362.541     200.233     -52.536
  H     -362.613     199.225     -54.007
  H     -366.035     197.506     -46.678
  H     -366.276     195.791     -46.909
  H     -367.639     196.824     -46.552

 3  4  5  6  7  8  9  10  11  12  13  23  28  29  30  31  32 0
 6-311+G(2d,p)
 ****
 33  34 0
 6-311+G(2d,p)
 ****
 1  2  14  15  16  17  18  19  20  21  22  24  25  26  27 0
 3-21G
 ****
 35  36  37  38  39  40  41  42  43  44  45 0
 3-21G
 ****


