%nproc=1
%NoSave
%Mem=1900MB
#P OB98/GEN NMR

erre ene a

0 1
  C      -73.093    -165.814    -271.403
  O      -72.298    -165.372    -270.320
  H      -73.513    -166.792    -271.153
  H      -72.473    -165.917    -272.298
  H      -73.911    -165.116    -271.593
  P      -71.753    -163.866    -270.395
  C      -69.676    -164.488    -271.823
  O      -70.163    -163.967    -270.595
  C      -68.235    -164.043    -272.051
  O      -68.186    -162.625    -272.327
  C      -67.310    -164.278    -270.861
  O      -66.827    -165.613    -270.823
  C      -66.191    -163.299    -271.181
  O      -65.344    -163.846    -272.210
  C      -66.973    -162.094    -271.721
  N      -66.053    -157.453    -269.898
  C      -65.469    -158.122    -270.955
  N      -64.490    -157.467    -271.615
  N      -65.805    -159.331    -271.329
  C      -66.790    -159.869    -270.571
  C      -67.449    -159.304    -269.500
  C      -67.072    -157.968    -269.103
  O      -67.573    -157.319    -268.190
  N      -68.395    -160.153    -268.991
  C      -68.297    -161.236    -269.735
  N      -67.330    -161.118    -270.706
  O      -71.899    -163.343    -268.887
  O      -72.467    -162.972    -271.350
  H      -64.952    -164.661    -271.848
  H      -72.144    -162.397    -268.904
  H      -65.749    -156.530    -269.645
  H      -68.899    -162.128    -269.617
  H      -66.423    -161.557    -272.503
  H      -65.556    -163.092    -270.318
  H      -64.149    -156.556    -271.348
  H      -67.789    -163.990    -269.916
  H      -64.069    -157.923    -272.415
  H      -67.857    -164.562    -272.941
  H      -70.303    -164.122    -272.644
  H      -69.732    -165.581    -271.793
  P      -66.551    -166.263    -269.378
  C      -64.748    -164.446    -268.932
  O      -65.051    -165.834    -268.994
  O      -66.418    -167.824    -269.707
  O      -67.597    -165.988    -268.355
  H      -66.610    -168.351    -268.906
  H      -63.719    -164.317    -268.667
  H      -65.368    -163.978    -268.196
  H      -64.929    -163.998    -269.887

 6  7  8  9  10  11  12  13  14  15  26  29  33  34 0
 6-311+G(2d,p)
 ****
 36  38  39  40  41 0
 6-311+G(2d,p)
 ****
 1  2  3  4  5  16  17  18  19  20  21  22  23  24  25 0
 3-21G
 ****
 27  28  30  31  32  35  37  42  43  44  45  46  47 0
 3-21G
 ****
 48  49 0
 3-21G
 ****


