%nproc=1
%NoSave
%Mem=1900MB
#P OB98/GEN NMR

erre ene a

0 1
  C     -108.742    -261.406    -392.973
  O     -108.945    -262.766    -393.348
  P     -108.182    -263.294    -394.660
  C     -110.389    -264.249    -395.639
  O     -109.296    -263.356    -395.816
  C     -111.686    -263.613    -396.130
  O     -111.947    -262.389    -395.414
  C     -111.687    -263.232    -397.605
  O     -111.969    -264.338    -398.451
  C     -112.826    -262.228    -397.650
  O     -114.087    -262.924    -397.667
  C     -112.653    -261.489    -396.310
  N     -112.966    -256.532    -397.523
  C     -113.872    -257.528    -397.567
  N     -113.713    -258.830    -397.239
  C     -112.440    -259.072    -396.866
  C     -111.398    -258.160    -396.811
  C     -111.696    -256.825    -397.146
  N     -110.773    -255.802    -397.073
  N     -110.240    -258.774    -396.382
  C     -110.582    -260.028    -396.173
  N     -111.905    -260.253    -396.445
  O     -107.910    -264.837    -394.323
  O     -106.924    -262.561    -394.993
  H     -114.017    -263.663    -397.033
  H     -107.159    -265.168    -394.850
  H     -114.868    -257.247    -397.905
  H     -109.905    -260.804    -395.830
  H     -113.611    -261.249    -395.839
  H     -112.798    -261.587    -398.536
  H     -110.748    -262.732    -397.887
  H     -112.510    -264.312    -395.918
  H     -110.491    -264.490    -394.576
  H     -111.108    -254.857    -397.152
  H     -109.892    -255.991    -396.606
  H     -110.181    -265.179    -396.193
  P     -110.775    -264.854    -399.395
  C     -112.139    -264.014    -401.447
  O     -110.910    -263.997    -400.746
  O     -111.252    -266.319    -399.819
  O     -109.430    -264.853    -398.743
  H     -110.485    -266.879    -400.035
  H     -112.161    -263.162    -402.136
  H     -112.986    -263.924    -400.760
  H     -112.228    -264.938    -402.024
  H     -109.305    -261.192    -392.089
  H     -109.066    -260.765    -393.766
  H     -107.702    -261.240    -392.782

 3  4  5  6  7  8  9  10  11  12  22  25  29  30  31  32 0
 6-311+G(2d,p)
 ****
 33  36  37 0
 6-311+G(2d,p)
 ****
 1  2  13  14  15  16  17  18  19  20  21  23  24  26 0
 3-21G
 ****
 27  28  34  35  38  39  40  41  42  43  44  45  46  47  48 0
 3-21G
 ****


