%nproc=1
%NoSave
%Mem=1900MB
#P OB98/GEN NMR

erre ene a

0 1
  C        5.570     -39.313     102.431
  O        6.871     -38.861     102.830
  P        8.149     -39.590     102.195
  C        7.939     -41.329     104.120
  O        8.205     -41.096     102.744
  C        7.922     -42.832     104.415
  O        9.195     -43.447     104.131
  C        7.628     -43.166     105.869
  O        6.235     -43.135     106.141
  C        8.150     -44.591     105.957
  O        7.180     -45.502     105.403
  C        9.394     -44.536     105.062
  N       13.578     -46.747     107.022
  C       12.506     -47.258     106.377
  N       11.423     -46.608     105.902
  C       11.522     -45.290     106.134
  C       12.551     -44.625     106.778
  C       13.621     -45.411     107.237
  N       14.711     -44.884     107.890
  N       12.298     -43.271     106.840
  C       11.140     -43.119     106.228
  N       10.628     -44.311     105.792
  O        9.376     -38.882     102.940
  O        8.253     -39.447     100.713
  H        6.949     -45.168     104.517
  H       10.136     -38.812     102.333
  H       12.519     -48.333     106.223
  H       10.639     -42.172     106.076
  H        9.526     -45.453     104.475
  H        8.334     -44.910     106.986
  H        8.196     -42.514     106.545
  H        7.163     -43.295     103.770
  H        6.981     -40.881     104.398
  H       15.452     -45.507     108.164
  H       14.758     -43.886     108.032
  H        8.701     -40.821     104.720
  P        5.708     -42.004     107.148
  C        5.517     -43.701     109.105
  O        6.102     -42.511     108.614
  O        4.118     -42.181     107.087
  O        6.131     -40.618     106.796
  H        3.679     -41.323     107.246
  H        6.105     -44.057     109.955
  H        5.503     -44.479     108.338
  H        4.496     -43.498     109.441
  H        4.822     -38.736     102.934
  H        5.457     -40.346     102.688
  H        5.460     -39.195     101.373

 3  4  5  6  7  8  9  10  11  12  22  25  29  30  31  32 0
 6-311+G(2d,p)
 ****
 33  36  37 0
 6-311+G(2d,p)
 ****
 1  2  13  14  15  16  17  18  19  20  21  23  24  26 0
 3-21G
 ****
 27  28  34  35  38  39  40  41  42  43  44  45  46  47  48 0
 3-21G
 ****


