%nproc=1
%NoSave
%Mem=1900MB
#P OB98/GEN NMR

erre ene a

0 1
  C     -165.839    -207.716    -324.405
  O     -166.826    -207.900    -325.403
  H     -166.280    -207.940    -323.430
  H     -165.492    -206.679    -324.407
  H     -164.997    -208.390    -324.578
  P     -166.386    -207.560    -326.908
  C     -165.716    -210.030    -327.318
  O     -165.304    -208.670    -327.324
  C     -164.681    -210.904    -328.023
  O     -164.920    -212.300    -327.747
  C     -164.660    -210.753    -329.539
  O     -163.878    -209.636    -329.928
  C     -164.040    -212.079    -329.959
  O     -162.605    -212.051    -329.805
  C     -164.674    -213.059    -328.962
  N     -166.613    -216.857    -331.666
  C     -165.301    -216.477    -331.480
  N     -164.359    -217.195    -332.134
  N     -164.935    -215.469    -330.729
  C     -165.980    -214.804    -330.186
  C     -167.324    -215.080    -330.294
  C     -167.710    -216.230    -331.085
  O     -168.848    -216.669    -331.221
  N     -168.076    -214.186    -329.578
  C     -167.192    -213.351    -329.065
  N     -165.905    -213.683    -329.409
  O     -165.506    -206.231    -326.748
  O     -167.504    -207.352    -327.871
  H     -162.386    -211.784    -328.896
  H     -165.686    -205.642    -327.506
  H     -166.833    -217.657    -332.231
  H     -167.428    -212.506    -328.435
  H     -163.989    -213.876    -328.700
  H     -164.234    -212.298    -331.010
  H     -164.586    -217.773    -332.931
  H     -165.679    -210.685    -329.943
  H     -163.405    -216.869    -332.054
  H     -163.699    -210.658    -327.599
  H     -166.677    -210.112    -327.837
  H     -165.838    -210.364    -326.284
  P     -163.563    -209.437    -331.485
  C     -165.905    -208.396    -331.923
  O     -164.964    -209.402    -332.273
  O     -162.932    -210.846    -331.905
  O     -162.627    -208.317    -331.795
  H     -161.966    -210.756    -332.018
  H     -166.781    -208.501    -332.529
  H     -165.472    -207.431    -332.085
  H     -166.170    -208.499    -330.892

 6  7  8  9  10  11  12  13  14  15  26  29  33  34 0
 6-311+G(2d,p)
 ****
 36  38  39  40  41 0
 6-311+G(2d,p)
 ****
 1  2  3  4  5  16  17  18  19  20  21  22  23  24  25 0
 3-21G
 ****
 27  28  30  31  32  35  37  42  43  44  45  46  47 0
 3-21G
 ****
 48  49 0
 3-21G
 ****


