%nproc=1
%NoSave
%Mem=1900MB
#P OB98/GEN NMR

erre ene a

0 1
  C      286.951    -653.488    -410.154
  O      286.602    -654.861    -410.246
  P      287.664    -655.956    -410.745
  C      288.121    -658.426    -410.146
  O      287.373    -657.258    -409.848
  C      287.526    -659.620    -409.393
  O      287.734    -659.444    -407.977
  C      286.016    -659.803    -409.576
  O      285.723    -660.372    -410.843
  C      285.685    -660.670    -408.370
  O      286.024    -662.040    -408.628
  C      286.628    -660.096    -407.285
  N      285.962    -659.172    -406.383
  C      285.386    -659.732    -405.236
  O      285.468    -660.943    -405.007
  N      284.763    -658.898    -404.338
  C      284.700    -657.624    -404.571
  N      284.127    -656.834    -403.621
  C      285.237    -656.997    -405.804
  C      285.855    -657.824    -406.645
  O      289.085    -655.497    -410.740
  O      287.133    -656.407    -412.179
  H      285.778    -662.547    -407.829
  H      287.475    -655.849    -412.926
  H      285.142    -655.934    -405.954
  H      286.297    -657.443    -407.556
  H      287.076    -660.910    -406.701
  H      284.628    -660.630    -408.083
  H      285.505    -658.835    -409.489
  H      288.060    -660.529    -409.706
  H      283.935    -657.276    -402.722
  H      289.156    -658.280    -409.821
  H      284.293    -655.837    -403.590
  H      288.106    -658.602    -411.224
  P      284.275    -660.087    -411.457
  C      283.190    -660.387    -413.795
  O      284.334    -660.569    -412.984
  O      284.213    -658.487    -411.543
  O      283.147    -660.653    -410.655
  H      283.694    -658.126    -410.801
  H      283.473    -660.539    -414.838
  H      282.799    -659.364    -413.688
  H      282.417    -661.109    -413.527
  H      286.109    -652.929    -409.804
  H      287.242    -653.128    -411.119
  H      287.765    -653.372    -409.470

 3  4  5  6  7  8  9  10  11  12  13  23  27  28  29  30  32 0
 6-311+G(2d,p)
 ****
 34  35 0
 6-311+G(2d,p)
 ****
 1  2  14  15  16  17  18  19  20  21  22  24  25  26 0
 3-21G
 ****
 31  33  36  37  38  39  40  41  42  43  44  45  46 0
 3-21G
 ****


