%nproc=1
%NoSave
%Mem=1900MB
#P OB98/GEN NMR

erre ene a

0 1
  C       10.205     -92.062    -124.558
  O        9.812     -90.747    -124.955
  P       10.944     -89.826    -125.623
  C       11.399     -88.237    -123.627
  O       11.902     -89.270    -124.462
  C       12.525     -87.363    -123.060
  O       13.209     -86.646    -124.121
  C       12.039     -86.322    -122.050
  O       13.073     -86.154    -121.077
  C       11.945     -85.057    -122.881
  O       11.974     -83.894    -122.057
  C       13.157     -85.238    -123.810
  N       13.082     -84.420    -125.018
  C       13.428     -83.073    -124.896
  O       13.711     -82.602    -123.793
  N       13.406     -82.279    -126.014
  C       13.017     -82.775    -127.147
  N       13.014     -81.937    -128.219
  C       12.586     -84.176    -127.312
  C       12.647     -84.932    -126.218
  O       10.133     -88.531    -126.100
  O       11.648     -90.480    -126.768
  H       11.765     -83.117    -122.620
  H       10.347     -88.327    -127.030
  H       12.252     -84.541    -128.271
  H       12.355     -85.972    -126.238
  H       14.086     -84.978    -123.287
  H       11.014     -85.052    -123.460
  H       11.104     -86.597    -121.554
  H       13.260     -88.022    -122.584
  H       13.324     -80.984    -128.068
  H       10.836     -88.673    -122.799
  H       12.730     -82.215    -129.146
  H       10.684     -87.636    -124.196
  P       12.757     -86.553    -119.557
  C       12.382     -84.144    -118.748
  O       11.783     -85.395    -119.024
  O       14.135     -86.166    -118.831
  O       12.361     -87.959    -119.256
  H       14.098     -86.430    -117.894
  H       11.596     -83.423    -118.516
  H       12.943     -83.790    -119.617
  H       13.045     -84.230    -117.882
  H        9.367     -92.571    -124.130
  H       10.990     -91.996    -123.834
  H       10.553     -92.604    -125.413

 3  4  5  6  7  8  9  10  11  12  13  21  23  27  28  29  30  32 0
 6-311+G(2d,p)
 ****
 34  35 0
 6-311+G(2d,p)
 ****
 1  2  14  15  16  17  18  19  20  22  24  25  26 0
 3-21G
 ****
 31  33  36  37  38  39  40  41  42  43  44  45  46 0
 3-21G
 ****


