%nproc=1
%NoSave
%Mem=1900MB
#P OB98/GEN NMR

erre ene a

0 1
  C     -805.645     420.313    -138.352
  O     -805.858     418.935    -138.664
  P     -804.568     417.989    -138.761
  C     -805.143     417.512    -141.275
  O     -804.847     416.993    -139.977
  C     -805.714     416.417    -142.171
  O     -804.710     415.373    -142.409
  C     -806.915     415.683    -141.571
  O     -808.079     416.490    -141.633
  C     -806.946     414.431    -142.438
  O     -807.585     414.701    -143.689
  C     -805.446     414.142    -142.649
  N     -804.942     413.056    -141.817
  C     -805.417     411.783    -142.147
  O     -806.234     411.575    -143.034
  N     -804.945     410.754    -141.373
  C     -804.077     410.880    -140.317
  O     -803.674     409.919    -139.675
  C     -803.640     412.252    -140.000
  C     -804.088     413.266    -140.747
  O     -804.750     417.086    -137.454
  O     -803.287     418.754    -138.829
  H     -805.676     416.890    -137.256
  H     -807.484     413.887    -144.238
  H     -805.258     409.832    -141.589
  H     -802.980     412.380    -139.159
  H     -803.790     414.275    -140.528
  H     -805.256     413.891    -143.699
  H     -807.504     413.612    -141.966
  H     -806.705     415.418    -140.528
  H     -805.975     416.859    -143.131
  H     -804.227     417.904    -141.725
  H     -805.850     418.335    -141.173
  P     -808.395     417.416    -140.365
  C     -810.549     416.114    -139.646
  O     -809.981     417.314    -140.108
  O     -808.184     418.877    -140.987
  O     -807.540     417.126    -139.175
  H     -808.597     418.980    -141.865
  H     -811.526     416.344    -139.213
  H     -809.926     415.656    -138.868
  H     -810.689     415.417    -140.471
  H     -806.586     420.821    -138.320
  H     -805.025     420.757    -139.103
  H     -805.164     420.393    -137.399

 3  4  5  6  7  8  9  10  11  12  13  24  28  29  30  31  32 0
 6-311+G(2d,p)
 ****
 33  34 0
 6-311+G(2d,p)
 ****
 1  2  14  15  16  17  18  19  20  21  22  23  25  26  27 0
 3-21G
 ****
 35  36  37  38  39  40  41  42  43  44  45 0
 3-21G
 ****


