%nproc=1
%NoSave
%Mem=1900MB
#P OB98/GEN NMR

erre ene a

0 1
  C      189.815    -460.008    -297.294
  O      189.753    -461.411    -297.142
  H      189.661    -459.765    -298.349
  H      190.793    -459.639    -296.984
  H      189.029    -459.524    -296.705
  P      189.938    -461.975    -295.649
  C      188.898    -464.071    -294.502
  O      189.435    -463.497    -295.681
  C      187.570    -464.776    -294.803
  O      186.499    -463.786    -294.785
  C      187.523    -465.451    -296.181
  O      186.623    -466.569    -296.098
  C      186.905    -464.358    -297.039
  O      186.469    -464.877    -298.279
  C      185.838    -463.847    -296.072
  N      182.382    -461.384    -298.917
  C      182.620    -462.697    -298.733
  N      183.547    -463.283    -297.946
  C      184.273    -462.350    -297.296
  C      184.138    -460.978    -297.372
  C      183.139    -460.489    -298.236
  N      182.902    -459.147    -298.428
  N      185.060    -460.343    -296.552
  C      185.735    -461.323    -295.992
  N      185.301    -462.553    -296.413
  O      188.795    -461.209    -294.824
  O      191.289    -461.771    -295.047
  H      187.233    -465.104    -298.851
  H      189.170    -460.419    -294.396
  H      181.979    -463.377    -299.293
  H      186.551    -461.207    -295.282
  H      185.004    -464.550    -295.982
  H      187.638    -463.576    -297.266
  H      188.499    -465.799    -296.531
  H      187.350    -465.496    -294.000
  H      188.734    -463.267    -293.765
  H      189.609    -464.794    -294.085
  H      182.174    -458.882    -299.078
  H      183.468    -458.469    -297.941
  P      187.179    -467.990    -295.577
  C      186.102    -469.785    -294.002
  O      185.934    -468.874    -295.084
  O      187.873    -467.583    -294.188
  O      188.154    -468.673    -296.477
  H      188.588    -468.210    -293.991
  H      185.176    -470.286    -293.810
  H      186.405    -469.248    -293.127
  H      186.851    -470.506    -294.256

 6  7  8  9  10  11  12  13  14  15  25  28  32  33  34  35 0
 6-311+G(2d,p)
 ****
 36  37  40 0
 6-311+G(2d,p)
 ****
 1  2  3  4  5  16  17  18  19  20  21  22  23  24 0
 3-21G
 ****
 26  27  29  30  31  38  39 41  42  43  44  45  46  47  48 0
 3-21G
 ****


