%nproc=1
%NoSave
%Mem=1900MB
#P OB98/GEN NMR

erre ene a

0 1
  C      -59.359     -64.230     380.242
  O      -58.652     -63.958     381.460
  P      -57.270     -63.146     381.360
  C      -55.843     -64.275     383.235
  O      -56.593     -63.137     382.823
  C      -55.752     -64.320     384.757
  O      -54.795     -63.368     385.271
  C      -57.067     -64.009     385.464
  O      -57.910     -65.146     385.536
  C      -56.575     -63.641     386.859
  O      -56.305     -64.835     387.607
  C      -55.274     -62.892     386.556
  N      -54.143     -58.508     388.819
  C      -53.766     -59.802     389.142
  N      -52.977     -59.951     390.225
  N      -54.151     -60.849     388.475
  C      -54.926     -60.555     387.395
  C      -55.352     -59.316     386.974
  C      -54.940     -58.161     387.746
  O      -55.244     -56.995     387.509
  N      -56.134     -59.414     385.851
  C      -56.162     -60.705     385.581
  N      -55.447     -61.452     386.500
  O      -57.756     -61.629     381.190
  O      -56.381     -63.575     380.242
  H      -55.948     -65.492     386.978
  H      -57.085     -61.123     380.698
  H      -53.823     -57.737     389.375
  H      -56.668     -61.156     384.735
  H      -54.491     -63.086     387.295
  H      -57.321     -63.074     387.424
  H      -52.604     -59.179     390.766
  H      -57.566     -63.145     385.004
  H      -52.673     -60.887     390.460
  H      -55.426     -65.340     385.053
  H      -54.832     -64.245     382.800
  H      -56.309     -65.184     382.825
  P      -59.488     -64.933     385.326
  C      -59.971     -66.678     387.191
  O      -60.199     -66.272     385.864
  O      -59.646     -65.013     383.735
  O      -60.024     -63.644     385.875
  H      -60.391     -64.440     383.443
  H      -60.644     -67.499     387.426
  H      -60.157     -65.855     387.885
  H      -58.933     -67.031     387.307
  H      -60.254     -64.773     380.463
  H      -58.739     -64.812     379.592
  H      -59.611     -63.307     379.762

 3  4  5  6  7  8  9  10  11  12  23  26  30  31 0
 6-311+G(2d,p)
 ****
 33  35  36  37  38 0
 6-311+G(2d,p)
 ****
 1  2  13  14  15  16  17  18  19  20  21  22  24  25 0
 3-21G
 ****
 27  28  29  32  34  39  40  41  42  43  44  45  46  47  48  49 0
 3-21G
 ****


