%nproc=1
%NoSave
%Mem=1900MB
#P OB98/GEN NMR

erre ene a

0 1
  C     -380.219     254.846     166.023
  O     -381.209     254.422     165.110
  H     -379.399     255.301     165.464
  H     -379.831     253.985     166.573
  H     -380.616     255.585     166.722
  P     -382.646     253.986     165.671
  C     -383.759     256.290     165.353
  O     -383.723     254.931     164.947
  C     -384.031     257.211     164.160
  O     -382.795     257.375     163.404
  C     -385.094     256.677     163.190
  O     -385.755     257.808     162.611
  C     -384.239     255.977     162.150
  O     -384.958     255.750     160.957
  C     -383.057     256.944     162.055
  N     -381.881     256.333     161.433
  C     -382.004     255.971     160.100
  O     -383.043     256.115     159.453
  N     -380.901     255.394     159.529
  C     -379.738     255.092     160.174
  O     -378.794     254.543     159.623
  C     -379.684     255.456     161.601
  C     -380.738     256.053     162.156
  O     -382.769     253.925     167.156
  O     -382.919     252.562     164.991
  H     -384.367     255.373     160.271
  H     -383.471     252.011     165.577
  H     -380.971     255.135     158.559
  H     -378.778     255.221     162.141
  H     -380.729     256.336     163.203
  H     -383.330     257.831     161.464
  H     -383.905     255.001     162.519
  H     -385.819     256.013     163.668
  H     -384.305     258.203     164.538
  H     -382.790     256.535     165.798
  H     -384.540     256.425     166.109
  P     -387.346     257.859     162.414
  C     -388.188     258.720     164.692
  O     -387.942     259.039     163.326
  O     -388.030     256.543     162.597
  O     -387.554     258.404     160.923
  H     -388.395     258.064     160.565
  H     -388.581     259.579     165.194
  H     -387.273     258.422     165.159
  H     -388.895     257.919     164.749

 6  7  8  9  10  11  12  13  14  15  16  26  31  32  33  34  35 0
 6-311+G(2d,p)
 ****
 36  37 0
 6-311+G(2d,p)
 ****
 1  2  3  4  5  17  18  19  20  21  22  23  24  25 0
 3-21G
 ****
 27  28  29  30  38  39  40  41  42  43  44  45 0
 3-21G
 ****


