%nproc=1
%NoSave
%Mem=1900MB
#P OB98/GEN NMR

erre ene a

0 1
  C     -210.013     154.820     -49.766
  O     -209.004     154.007     -49.154
  P     -207.491     154.113     -49.670
  C     -206.125     153.427     -51.738
  O     -207.343     153.264     -51.025
  C     -206.239     152.972     -53.202
  O     -206.482     151.543     -53.279
  C     -207.354     153.672     -53.993
  O     -206.867     153.840     -55.333
  C     -208.468     152.651     -53.951
  O     -209.449     152.873     -54.955
  C     -207.662     151.351     -54.082
  N     -208.417     150.183     -53.664
  C     -208.214     148.999     -54.378
  O     -207.498     148.997     -55.380
  N     -208.845     147.856     -53.950
  C     -209.719     147.924     -52.992
  N     -210.313     146.774     -52.587
  C     -210.101     149.196     -52.342
  C     -209.399     150.269     -52.702
  O     -206.441     153.852     -48.642
  O     -207.406     155.631     -50.199
  H     -209.840     153.765     -54.831
  H     -206.511     155.975     -50.022
  H     -210.896     149.226     -51.612
  H     -209.589     151.239     -52.275
  H     -207.337     151.206     -55.124
  H     -208.970     152.693     -52.976
  H     -207.628     154.654     -53.593
  H     -205.267     153.165     -53.683
  H     -210.067     145.909     -53.062
  H     -205.337     152.852     -51.243
  H     -210.972     146.741     -51.811
  H     -205.816     154.481     -51.673
  P     -206.758     155.319     -55.945
  C     -207.972     156.690     -57.794
  O     -207.866     155.469     -57.090
  O     -205.407     155.219     -56.811
  O     -206.640     156.434     -54.948
  H     -205.018     156.111     -56.899
  H     -208.567     156.527     -58.694
  H     -206.988     157.061     -58.088
  H     -208.468     157.443     -57.169
  H     -210.958     154.624     -49.304
  H     -210.072     154.590     -50.809
  H     -209.762     155.853     -49.642

 3  4  5  6  7  8  9  10  11  12  13  23  27  28  29  30  32 0
 6-311+G(2d,p)
 ****
 34  35 0
 6-311+G(2d,p)
 ****
 1  2  14  15  16  17  18  19  20  21  22  24  25  26 0
 3-21G
 ****
 31  33  36  37  38  39  40  41  42  43  44  45  46 0
 3-21G
 ****


