%nproc=1
%NoSave
%Mem=1900MB
#P OB98/GEN NMR

erre ene a

0 1
  C     -118.055    -681.190    -757.215
  O     -117.906    -680.458    -758.418
  P     -116.774    -679.309    -758.441
  C     -115.422    -680.285    -760.443
  O     -115.461    -679.994    -759.049
  C     -114.432    -681.416    -760.725
  O     -114.840    -682.611    -760.019
  C     -114.334    -681.827    -762.189
  O     -113.490    -680.961    -762.930
  C     -113.703    -683.207    -762.072
  O     -112.299    -683.085    -761.873
  C     -114.399    -683.742    -760.800
  N     -115.883    -688.537    -761.557
  C     -114.683    -688.049    -761.091
  N     -113.711    -688.965    -760.843
  N     -114.443    -686.786    -760.875
  C     -115.484    -685.978    -761.194
  C     -116.731    -686.345    -761.664
  C     -116.988    -687.760    -761.888
  O     -118.006    -688.229    -762.376
  N     -117.538    -685.259    -761.847
  C     -116.797    -684.222    -761.474
  N     -115.523    -684.603    -761.107
  O     -116.400    -679.098    -756.897
  O     -117.201    -678.032    -759.103
  H     -111.937    -682.581    -762.636
  H     -115.940    -678.252    -756.774
  H     -116.006    -689.523    -761.717
  H     -117.119    -683.182    -761.471
  H     -113.693    -684.336    -760.179
  H     -113.865    -683.816    -762.975
  H     -113.815    -689.951    -761.046
  H     -115.332    -681.903    -762.644
  H     -112.802    -688.629    -760.559
  H     -113.445    -681.115    -760.342
  H     -115.098    -679.380    -760.993
  H     -116.421    -680.560    -760.798
  P     -114.151    -680.219    -764.203
  C     -114.135    -677.746    -763.397
  O     -114.895    -678.920    -763.586
  O     -115.372    -681.182    -764.605
  O     -113.216    -679.957    -765.339
  H     -115.578    -681.091    -765.562
  H     -114.833    -676.896    -763.225
  H     -113.512    -677.507    -764.268
  H     -113.500    -677.831    -762.496
  H     -118.833    -681.915    -757.333
  H     -118.308    -680.521    -756.419
  H     -117.136    -681.687    -756.984

 3  4  5  6  7  8  9  10  11  12  23  26  30  31 0
 6-311+G(2d,p)
 ****
 33  35  36  37  38 0
 6-311+G(2d,p)
 ****
 1  2  13  14  15  16  17  18  19  20  21  22  24  25 0
 3-21G
 ****
 27  28  29  32  34  39  40  41  42  43  44  45  46  47  48  49 0
 3-21G
 ****


