%nproc=1
%NoSave
%Mem=1900MB
#P OB98/GEN NMR

erre ene a

0 1
  C     -255.008     363.287     692.623
  O     -254.332     363.068     691.375
  P     -252.763     362.755     691.298
  C     -253.234     361.771     688.961
  O     -252.353     362.551     689.751
  C     -252.755     361.663     687.507
  O     -253.061     362.881     686.788
  C     -251.261     361.442     687.348
  O     -250.932     360.085     687.586
  C     -251.026     361.913     685.917
  O     -251.395     360.895     684.980
  C     -252.003     363.098     685.817
  N     -249.302     366.870     683.660
  C     -249.817     365.731     683.163
  N     -250.530     364.776     683.803
  C     -250.698     365.093     685.098
  C     -250.220     366.227     685.750
  C     -249.477     367.143     684.980
  N     -248.936     368.290     685.496
  N     -250.568     366.196     687.086
  C     -251.270     365.082     687.227
  N     -251.375     364.390     686.056
  O     -252.315     361.646     692.200
  O     -252.048     364.125     691.695
  H     -252.273     360.553     685.227
  H     -251.179     363.940     692.101
  H     -249.643     365.562     682.101
  H     -251.712     364.744     688.158
  H     -252.491     363.150     684.838
  H     -249.987     362.183     685.719
  H     -250.709     362.093     688.037
  H     -253.324     360.855     687.025
  H     -254.232     362.236     688.985
  H     -248.392     368.883     684.888
  H     -249.032     368.473     686.492
  H     -253.318     360.769     689.397
  P     -250.350     359.621     689.009
  C     -250.845     357.137     688.621
  O     -249.854     358.111     688.857
  O     -251.258     359.866     690.179
  O     -248.986     360.441     689.160
  H     -248.821     360.621     690.098
  H     -251.320     356.869     689.573
  H     -250.362     356.234     688.202
  H     -251.598     357.494     687.911
  H     -256.045     363.477     692.438
  H     -254.574     364.129     693.121
  H     -254.909     362.418     693.239

 3  4  5  6  7  8  9  10  11  12  22  25  29  30  31  32 0
 6-311+G(2d,p)
 ****
 33  36  37 0
 6-311+G(2d,p)
 ****
 1  2  13  14  15  16  17  18  19  20  21  23  24  26 0
 3-21G
 ****
 27  28  34  35  38  39  40  41  42  43  44  45  46  47  48 0
 3-21G
 ****


