%nproc=1
%NoSave
%Mem=1900MB
#P OB98/GEN NMR

erre ene a

0 1
  C       13.057     -37.966      -5.260
  O       13.453     -38.976      -6.167
  H       12.047     -38.168      -4.898
  H       13.745     -37.970      -4.410
  H       13.094     -36.983      -5.739
  P       12.681     -39.027      -7.573
  C       14.804     -39.911      -8.784
  O       13.442     -40.138      -8.450
  C       15.338     -41.054      -9.649
  O       15.697     -42.165      -8.787
  C       14.323     -41.570     -10.674
  O       15.010     -41.886     -11.887
  C       13.790     -42.841     -10.036
  O       13.285     -43.758     -10.999
  C       15.019     -43.338      -9.280
  N       14.236     -48.200      -7.933
  C       14.688     -47.641      -9.076
  N       14.874     -46.333      -9.352
  C       14.586     -45.578      -8.276
  C       14.114     -46.003      -7.046
  C       13.929     -47.387      -6.893
  N       13.435     -47.962      -5.745
  N       13.903     -44.923      -6.209
  C       14.240     -43.868      -6.924
  N       14.656     -44.214      -8.180
  O       13.120     -37.643      -8.255
  O       11.198     -39.166      -7.495
  H       14.027     -44.042     -11.572
  H       12.586     -36.915      -7.884
  H       14.926     -48.335      -9.878
  H       14.195     -42.842      -6.586
  H       15.711     -43.895      -9.924
  H       12.979     -42.593      -9.342
  H       13.529     -40.850     -10.884
  H       16.262     -40.722     -10.138
  H       15.391     -39.846      -7.861
  H       13.281     -48.958      -5.742
  H       13.143     -47.369      -4.982
  H       14.889     -38.964      -9.329
  P       15.149     -40.706     -12.967
  C       17.571     -41.411     -13.567
  O       16.264     -41.127     -14.044
  O       15.846     -39.526     -12.140
  O       13.842     -40.269     -13.546
  H       15.354     -38.694     -12.268
  H       18.202     -41.675     -14.390
  H       17.529     -42.226     -12.875
  H       17.967     -40.546     -13.077

 6  7  8  9  10  11  12  13  14  15  25  28  32  33  34  35 0
 6-311+G(2d,p)
 ****
 36  39  40 0
 6-311+G(2d,p)
 ****
 1  2  3  4  5  16  17  18  19  20  21  22  23  24 0
 3-21G
 ****
 26  27  29  30  31  37  38  41  42  43  44  45  46  47 0
 3-21G
 ****
 48 0
 3-21G
 ****


