%nproc=1
%NoSave
%Mem=1900MB
#P OB98/GEN NMR

erre ene a

0 1
  C      -73.063     186.988    -165.191
  O      -72.867     185.849    -166.007
  H      -73.854     186.768    -164.469
  H      -73.364     187.851    -165.790
  H      -72.145     187.218    -164.644
  P      -71.959     186.008    -167.321
  C      -70.341     184.142    -166.580
  O      -70.488     185.526    -166.884
  C      -69.282     183.489    -167.469
  O      -67.971     184.016    -167.171
  C      -69.150     181.987    -167.278
  O      -70.268     181.238    -167.695
  C      -67.793     181.710    -167.907
  O      -67.866     181.582    -169.327
  C      -67.013     182.994    -167.529
  N      -66.048     182.763    -166.459
  C      -64.718     182.662    -166.850
  O      -64.346     182.735    -168.022
  N      -63.817     182.437    -165.846
  C      -64.117     182.261    -164.527
  O      -63.262     182.041    -163.676
  C      -65.544     182.340    -164.179
  C      -66.433     182.585    -165.145
  O      -71.987     187.361    -167.968
  O      -72.458     184.828    -168.278
  H      -68.499     180.865    -169.516
  H      -72.151     184.966    -169.207
  H      -62.845     182.375    -166.106
  H      -65.819     182.193    -163.144
  H      -67.494     182.650    -164.913
  H      -66.465     183.375    -168.402
  H      -67.339     180.793    -167.522
  H      -69.039     181.786    -166.205
  H      -69.511     183.741    -168.510
  H      -71.308     183.657    -166.757
  H      -70.073     184.025    -165.525
  P      -70.694     179.845    -167.049
  C      -72.766     180.802    -165.771
  O      -71.510     180.137    -165.700
  O      -69.654     178.771    -167.023
  O      -71.866     179.365    -168.051
  H      -71.818     178.390    -168.103
  H      -73.167     180.913    -164.785
  H      -73.442     180.226    -166.368
  H      -72.634     181.767    -166.213

 6  7  8  9  10  11  12  13  14  15  16  26  31  32  33  34  35 0
 6-311+G(2d,p)
 ****
 36  37 0
 6-311+G(2d,p)
 ****
 1  2  3  4  5  17  18  19  20  21  22  23  24  25 0
 3-21G
 ****
 27  28  29  30  38  39  40  41  42  43  44  45 0
 3-21G
 ****


