%nproc=1
%NoSave
%Mem=1900MB
#P OB98/GEN NMR

erre ene a

0 1
  C      155.428     336.699    -265.771
  O      155.585     338.099    -265.553
  P      155.759     338.782    -264.120
  C      158.334     339.181    -264.408
  O      157.279     338.593    -263.660
  C      159.729     338.768    -263.910
  O      159.938     337.355    -264.168
  C      160.818     339.517    -264.684
  O      161.195     340.825    -264.296
  C      161.977     338.534    -264.760
  O      162.927     338.721    -263.709
  C      161.296     337.170    -264.622
  N      164.094     335.064    -268.352
  C      164.501     335.849    -267.291
  N      165.816     336.159    -267.239
  N      163.692     336.306    -266.373
  C      162.396     335.997    -266.594
  C      161.866     335.242    -267.618
  C      162.777     334.693    -268.596
  O      162.473     333.982    -269.545
  N      160.499     335.158    -267.525
  C      160.200     335.879    -266.464
  N      161.320     336.405    -265.858
  O      154.703     338.456    -263.118
  O      155.652     340.358    -264.449
  H      163.255     339.637    -263.761
  H      155.235     340.775    -263.666
  H      164.766     334.718    -269.015
  H      159.198     336.047    -266.089
  H      161.793     336.552    -263.868
  H      162.528     338.659    -265.700
  H      166.468     335.938    -267.973
  H      160.459     339.623    -265.716
  H      166.081     336.904    -266.594
  H      159.808     338.889    -262.827
  H      158.208     340.265    -264.338
  H      158.231     338.925    -265.466
  P      160.965     342.162    -265.141
  C      159.708     343.453    -263.319
  O      159.630     342.863    -264.603
  O      160.524     341.641    -266.586
  O      162.152     343.059    -265.238
  H      160.608     342.353    -267.249
  H      158.696     343.615    -262.938
  H      160.218     344.418    -263.389
  H      160.249     342.805    -262.620
  H      155.332     336.510    -266.820
  H      154.550     336.355    -265.265
  H      156.284     336.181    -265.392

 3  4  5  6  7  8  9  10  11  12  23  26  30  31 0
 6-311+G(2d,p)
 ****
 33  35  36  37  38 0
 6-311+G(2d,p)
 ****
 1  2  13  14  15  16  17  18  19  20  21  22  24  25 0
 3-21G
 ****
 27  28  29  32  34  39  40  41  42  43  44  45  46  47  48  49 0
 3-21G
 ****


