%nproc=1
%NoSave
%Mem=1900MB
#P OB98/GEN NMR

erre ene a

0 1
  C      121.025     412.718     417.062
  O      120.106     412.029     416.229
  P      120.231     412.245     414.643
  C      122.326     410.707     414.715
  O      121.753     411.923     414.247
  C      123.323     410.150     413.697
  O      124.067     409.065     414.321
  C      122.685     409.591     412.414
  O      123.596     409.869     411.345
  C      122.623     408.101     412.710
  O      122.432     407.290     411.565
  C      123.945     407.917     413.449
  N      126.612     403.637     414.294
  C      126.860     404.714     413.517
  N      126.109     405.818     413.350
  C      124.996     405.754     414.097
  C      124.596     404.715     414.924
  C      125.463     403.616     415.011
  N      125.199     402.511     415.801
  N      123.377     404.993     415.510
  C      123.048     406.182     415.046
  N      124.000     406.687     414.205
  O      120.140     413.833     414.487
  O      119.194     411.538     413.824
  H      123.004     407.602     410.837
  H      119.626     414.079     413.694
  H      127.793     404.683     412.955
  H      122.126     406.704     415.270
  H      124.802     407.927     412.765
  H      121.778     407.910     413.384
  H      121.715     410.038     412.182
  H      124.044     410.939     413.448
  H      121.534     409.966     414.861
  H      125.775     401.698     415.641
  H      124.255     402.415     416.159
  H      122.809     410.883     415.682
  P      123.041     409.911     409.841
  C      122.393     412.371     410.197
  O      121.933     411.075     409.875
  O      122.121     408.593     409.818
  O      124.066     409.969     408.765
  H      121.509     408.572     410.578
  H      121.562     413.075     410.089
  H      123.202     412.671     409.529
  H      122.737     412.393     411.237
  H      120.825     412.481     418.086
  H      120.921     413.772     416.913
  H      122.023     412.420     416.815

 3  4  5  6  7  8  9  10  11  12  22  25  29  30  31  32 0
 6-311+G(2d,p)
 ****
 33  36  37 0
 6-311+G(2d,p)
 ****
 1  2  13  14  15  16  17  18  19  20  21  23  24  26 0
 3-21G
 ****
 27  28  34  35  38  39  40  41  42  43  44  45  46  47  48 0
 3-21G
 ****


