%nproc=1
%NoSave
%Mem=1900MB
#P OB98/GEN NMR

erre ene a

0 1
  C     -188.107     577.834    -187.854
  O     -189.164     577.073    -188.395
  H     -187.159     577.399    -188.180
  H     -188.147     577.807    -186.762
  H     -188.159     578.868    -188.206
  P     -190.658     577.624    -188.178
  C     -191.429     575.646    -186.681
  O     -191.163     577.039    -186.771
  C     -192.050     575.305    -185.325
  O     -191.089     575.604    -184.282
  C     -193.332     576.094    -185.025
  O     -194.249     575.231    -184.343
  C     -192.868     577.185    -184.074
  O     -193.918     577.669    -183.235
  C     -191.724     576.482    -183.330
  N     -190.780     577.446    -182.769
  C     -190.822     577.629    -181.381
  O     -191.632     577.000    -180.695
  N     -189.986     578.557    -180.812
  C     -189.243     579.301    -181.567
  N     -188.461     580.222    -180.942
  C     -189.217     579.188    -183.039
  C     -189.994     578.247    -183.565
  O     -191.514     576.796    -189.248
  O     -190.824     579.096    -188.333
  H     -194.686     577.893    -183.803
  H     -192.267     577.321    -189.578
  H     -188.595     579.852    -183.628
  H     -190.047     578.094    -184.638
  H     -192.116     575.859    -182.517
  H     -192.480     578.034    -184.652
  H     -193.810     576.502    -185.918
  H     -192.240     574.227    -185.291
  H     -188.517     580.280    -179.932
  H     -190.489     575.098    -186.788
  H     -187.876     580.884    -181.432
  H     -192.101     575.351    -187.494
  P     -195.245     574.368    -185.263
  C     -197.562     575.523    -185.054
  O     -196.380     575.347    -185.825
  O     -196.018     573.450    -184.205
  O     -194.540     573.550    -186.297
  H     -195.719     572.524    -184.286
  H     -198.219     576.201    -185.558
  H     -197.306     575.921    -184.095
  H     -198.050     574.579    -184.929

 6  7  8  9  10  11  12  13  14  15  16  26  30  31  32  33  35 0
 6-311+G(2d,p)
 ****
 37  38 0
 6-311+G(2d,p)
 ****
 1  2  3  4  5  17  18  19  20  21  22  23  24  25 0
 3-21G
 ****
 27  28  29  34  36  39  40  41  42  43  44  45  46 0
 3-21G
 ****


