%nproc=1
%NoSave
%Mem=1900MB
#P OB98/GEN NMR

erre ene a

0 1
  C     -289.851     189.280      33.350
  O     -290.942     189.751      34.148
  P     -291.169     189.294      35.670
  C     -292.192     191.395      36.767
  O     -292.428     190.082      36.276
  C     -293.426     191.975      37.465
  O     -294.369     192.479      36.495
  C     -294.211     190.970      38.307
  O     -293.552     190.706      39.534
  C     -295.549     191.689      38.443
  O     -295.512     192.666      39.495
  C     -295.691     192.368      37.068
  N     -296.595     191.657      36.177
  C     -297.881     191.407      36.666
  O     -298.183     191.721      37.821
  N     -298.785     190.768      35.848
  C     -298.412     190.359      34.675
  N     -299.353     189.746      33.909
  C     -297.043     190.534      34.153
  C     -296.199     191.186      34.950
  O     -289.940     189.373      36.516
  O     -291.690     187.781      35.572
  H     -294.861     193.340      39.222
  H     -291.394     187.294      36.364
  H     -296.768     190.151      33.184
  H     -295.176     191.359      34.642
  H     -296.051     193.402      37.188
  H     -296.369     191.003      38.670
  H     -294.353     190.044      37.736
  H     -293.098     192.815      38.087
  H     -300.283     189.647      34.289
  H     -291.926     192.038      35.915
  H     -299.172     189.390      32.974
  H     -291.341     191.369      37.457
  P     -293.026     189.223      39.841
  C     -291.072     190.448      40.982
  O     -291.953     189.337      41.027
  O     -292.582     188.430      38.660
  O     -294.269     188.525      40.566
  H     -294.264     187.567      40.351
  H     -290.688     190.636      41.991
  H     -291.585     191.341      40.614
  H     -290.231     190.220      40.321
  H     -289.906     189.719      32.376
  H     -289.905     188.215      33.265
  H     -288.926     189.554      33.813

 3  4  5  6  7  8  9  10  11  12  13  23  27  28  29  30  32 0
 6-311+G(2d,p)
 ****
 34  35 0
 6-311+G(2d,p)
 ****
 1  2  14  15  16  17  18  19  20  21  22  24  25  26 0
 3-21G
 ****
 31  33  36  37  38  39  40  41  42  43  44  45  46 0
 3-21G
 ****


