%nproc=1
%NoSave
%Mem=1900MB
#P OB98/GEN NMR

erre ene a

0 1
  C     -172.539      94.562    -428.573
  O     -171.370      94.984    -429.251
  H     -173.411      94.918    -429.129
  H     -172.576      94.976    -427.559
  H     -172.574      93.471    -428.529
  P     -169.959      94.810    -428.502
  C     -169.079      93.735    -430.681
  O     -168.861      94.724    -429.675
  C     -168.132      93.955    -431.868
  O     -168.537      95.121    -432.620
  C     -166.689      94.218    -431.466
  O     -166.032      93.094    -430.908
  C     -166.119      94.884    -432.707
  O     -165.645      93.963    -433.682
  C     -167.357      95.648    -433.255
  N     -167.237      97.089    -433.080
  C     -166.425      97.747    -434.000
  O     -165.815      97.177    -434.907
  N     -166.301      99.099    -433.827
  C     -166.857      99.828    -432.809
  O     -166.672     101.039    -432.683
  C     -167.681      99.076    -431.856
  C     -167.832      97.756    -432.030
  O     -169.880      93.681    -427.514
  O     -169.692      96.248    -427.854
  H     -164.852      93.531    -433.309
  H     -168.996      96.200    -427.154
  H     -165.730      99.601    -434.486
  H     -168.133      99.616    -431.030
  H     -168.434      97.174    -431.337
  H     -167.468      95.453    -434.336
  H     -165.281      95.544    -432.458
  H     -166.697      94.983    -430.677
  H     -168.206      93.083    -432.531
  H     -170.112      93.835    -431.027
  H     -168.934      92.737    -430.260
  P     -165.052      93.187    -429.651
  C     -165.038      90.628    -429.214
  O     -164.274      91.787    -429.514
  O     -165.603      93.826    -428.414
  O     -163.897      94.166    -430.215
  H     -163.578      94.711    -429.470
  H     -164.390      89.779    -429.154
  H     -165.763      90.469    -429.985
  H     -165.537      90.762    -428.277

 6  7  8  9  10  11  12  13  14  15  16  26  31  32  33  34  35 0
 6-311+G(2d,p)
 ****
 36  37 0
 6-311+G(2d,p)
 ****
 1  2  3  4  5  17  18  19  20  21  22  23  24  25 0
 3-21G
 ****
 27  28  29  30  38  39  40  41  42  43  44  45 0
 3-21G
 ****


