%nproc=1
%NoSave
%Mem=1900MB
#P OB98/GEN NMR

erre ene a

0 1
  C     -185.241     389.837    -220.088
  O     -186.164     390.735    -220.699
  P     -187.477     390.124    -221.389
  C     -189.978     389.640    -220.654
  O     -188.670     390.064    -220.324
  C     -190.982     390.360    -219.735
  O     -190.812     389.939    -218.370
  C     -190.832     391.880    -219.757
  O     -191.567     392.471    -220.814
  C     -191.341     392.262    -218.378
  O     -192.785     392.235    -218.349
  C     -190.763     391.115    -217.517
  N     -189.380     391.268    -216.999
  C     -188.909     392.535    -216.649
  O     -189.560     393.571    -216.747
  N     -187.624     392.579    -216.159
  C     -186.849     391.506    -215.829
  O     -185.730     391.607    -215.335
  C     -187.455     390.193    -216.077
  C     -188.661     390.132    -216.647
  O     -187.107     388.594    -221.635
  O     -187.885     390.815    -222.656
  H     -193.098     392.886    -219.000
  H     -187.080     388.397    -222.589
  H     -187.241     393.493    -215.974
  H     -186.890     389.314    -215.785
  H     -189.113     389.162    -216.839
  H     -191.405     390.928    -216.647
  H     -191.049     393.278    -218.121
  H     -189.777     392.156    -219.816
  H     -192.001     390.085    -220.057
  H     -190.075     388.559    -220.536
  H     -190.189     389.869    -221.702
  P     -190.805     392.964    -222.138
  C     -189.730     391.781    -224.146
  O     -190.561     391.631    -223.016
  O     -189.607     393.826    -221.925
  O     -191.954     393.716    -222.973
  H     -191.918     394.688    -222.810
  H     -189.515     390.785    -224.555
  H     -188.785     392.253    -223.862
  H     -190.235     392.369    -224.909
  H     -184.424     390.391    -219.675
  H     -184.872     389.151    -220.822
  H     -185.734     389.295    -219.308

 3  4  5  6  7  8  9  10  11  12  13  23  28  29  30  31  32 0
 6-311+G(2d,p)
 ****
 33  34 0
 6-311+G(2d,p)
 ****
 1  2  14  15  16  17  18  19  20  21  22  24  25  26  27 0
 3-21G
 ****
 35  36  37  38  39  40  41  42  43  44  45 0
 3-21G
 ****


