%nproc=1
%NoSave
%Mem=1900MB
#P OB98/GEN NMR

erre ene a

0 1
  C       61.780    -251.972    -344.950
  O       62.043    -250.597    -345.140
  H       61.790    -252.466    -345.924
  H       60.793    -252.113    -344.498
  H       62.549    -252.424    -344.318
  P       62.019    -249.623    -343.867
  C       64.317    -250.209    -342.838
  O       63.547    -249.242    -343.545
  C       65.791    -249.786    -342.794
  O       66.319    -249.888    -344.142
  C       65.971    -248.338    -342.310
  O       66.898    -248.224    -341.229
  C       66.273    -247.578    -343.595
  O       67.025    -246.395    -343.411
  C       66.946    -248.634    -344.479
  N       66.831    -248.368    -345.910
  C       67.324    -247.151    -346.380
  O       67.855    -246.291    -345.682
  N       67.185    -246.938    -347.728
  C       66.611    -247.793    -348.628
  O       66.522    -247.547    -349.823
  C       66.085    -249.047    -348.068
  C       66.216    -249.275    -346.758
  O       61.241    -250.115    -342.693
  O       61.421    -248.252    -344.437
  H       67.226    -246.037    -344.304
  H       60.497    -248.150    -344.137
  H       67.552    -246.068    -348.084
  H       65.611    -249.741    -348.751
  H       65.842    -250.193    -346.310
  H       68.011    -248.709    -344.240
  H       65.321    -247.283    -344.058
  H       65.038    -247.953    -341.880
  H       66.342    -250.494    -342.167
  H       64.211    -251.168    -343.363
  H       63.930    -250.316    -341.819
  P       66.501    -248.123    -339.688
  C       67.411    -250.334    -338.594
  O       67.571    -248.941    -338.829
  O       65.062    -248.354    -339.368
  O       66.838    -246.589    -339.310
  H       66.187    -246.323    -338.625
  H       68.228    -250.692    -338.002
  H       67.393    -250.854    -339.529
  H       66.492    -250.505    -338.074

 6  7  8  9  10  11  12  13  14  15  16  26  31  32  33  34  35 0
 6-311+G(2d,p)
 ****
 36  37 0
 6-311+G(2d,p)
 ****
 1  2  3  4  5  17  18  19  20  21  22  23  24  25 0
 3-21G
 ****
 27  28  29  30  38  39  40  41  42  43  44  45 0
 3-21G
 ****


