%nproc=1
%NoSave
%Mem=1900MB
#P OB98/GEN NMR

erre ene a

0 1
  C      755.405     -19.390     214.225
  O      754.303     -19.907     213.511
  P      753.679     -21.333     213.906
  C      754.886     -22.370     211.886
  O      754.613     -22.479     213.279
  C      755.084     -23.753     211.267
  O      756.131     -24.470     211.951
  C      753.859     -24.660     211.359
  O      752.840     -24.273     210.460
  C      754.488     -26.022     211.076
  O      754.669     -26.216     209.669
  C      755.859     -25.885     211.779
  N      755.897     -26.591     213.052
  C      756.613     -27.792     213.060
  O      757.095     -28.240     212.027
  N      756.759     -28.454     214.263
  C      756.135     -28.027     215.319
  N      756.362     -28.691     216.485
  C      755.243     -26.858     215.300
  C      755.183     -26.177     214.157
  O      752.224     -21.488     213.626
  O      753.979     -21.460     215.475
  H      753.158     -21.710     215.935
  H      754.793     -27.174     209.533
  H      754.691     -26.575     216.194
  H      754.572     -25.284     214.063
  H      756.651     -26.269     211.135
  H      753.862     -26.844     211.446
  H      753.470     -24.644     212.384
  H      755.378     -23.619     210.219
  H      757.002     -29.475     216.456
  H      755.788     -21.768     211.745
  H      756.201     -28.266     217.396
  H      754.052     -21.852     211.393
  P      751.409     -23.923     211.093
  C      750.336     -26.224     210.572
  O      750.753     -25.299     211.568
  O      750.535     -23.504     209.821
  O      751.430     -22.831     212.120
  H      749.925     -22.785     210.060
  H      750.250     -27.212     211.034
  H      751.059     -26.283     209.756
  H      749.363     -25.917     210.191
  H      755.677     -18.438     213.820
  H      756.232     -20.063     214.141
  H      755.141     -19.277     215.256

 3  4  5  6  7  8  9  10  11  12  13  24  27  28  29  30  32 0
 6-311+G(2d,p)
 ****
 34  35 0
 6-311+G(2d,p)
 ****
 1  2  14  15  16  17  18  19  20  21  22  23  25  26 0
 3-21G
 ****
 31  33  36  37  38  39  40  41  42  43  44  45  46 0
 3-21G
 ****


