%nproc=1
%NoSave
%Mem=1900MB
#P OB98/GEN NMR

erre ene a

0 1
  C       51.072    -534.205     -31.559
  O       51.928    -533.132     -31.225
  H       50.235    -533.812     -32.142
  H       50.678    -534.670     -30.652
  H       51.599    -534.950     -32.162
  P       53.321    -533.455     -30.498
  C       55.538    -532.132     -30.499
  O       54.456    -532.631     -31.276
  C       56.540    -531.420     -31.404
  O       56.968    -532.303     -32.467
  C       55.976    -530.186     -32.095
  O       55.898    -529.091     -31.203
  C       56.974    -530.013     -33.231
  O       58.165    -529.354     -32.772
  C       57.267    -531.479     -33.615
  N       56.515    -531.919     -34.791
  C       57.034    -531.557     -36.030
  O       58.049    -530.872     -36.164
  N       56.326    -531.985     -37.120
  C       55.118    -532.620     -37.093
  O       54.479    -532.903     -38.103
  C       54.607    -532.957     -35.758
  C       55.318    -532.599     -34.686
  O       53.623    -534.900     -30.288
  O       53.207    -532.674     -29.103
  H       58.850    -529.523     -33.449
  H       53.035    -533.315     -28.386
  H       56.676    -531.718     -38.027
  H       53.661    -533.478     -35.694
  H       54.953    -532.833     -33.692
  H       58.335    -531.611     -33.824
  H       56.570    -529.417     -34.046
  H       54.992    -530.409     -32.521
  H       57.423    -531.164     -30.805
  H       56.031    -532.973     -29.999
  H       55.145    -531.449     -29.739
  P       55.439    -527.654     -31.740
  C       53.883    -525.770     -30.944
  O       54.606    -526.939     -30.572
  O       54.776    -527.657     -33.080
  O       56.799    -526.814     -31.782
  H       56.971    -526.524     -32.699
  H       53.369    -525.382     -30.090
  H       53.173    -526.017     -31.706
  H       54.564    -525.033     -31.316

 6  7  8  9  10  11  12  13  14  15  16  26  31  32  33  34  35 0
 6-311+G(2d,p)
 ****
 36  37 0
 6-311+G(2d,p)
 ****
 1  2  3  4  5  17  18  19  20  21  22  23  24  25 0
 3-21G
 ****
 27  28  29  30  38  39  40  41  42  43  44  45 0
 3-21G
 ****


