%nproc=1
%NoSave
%Mem=1900MB
#P OB98/GEN NMR

erre ene a

0 1
  C      132.372     120.543     132.552
  O      132.054     120.999     133.865
  P      131.648     120.050     135.083
  C      132.861     117.992     136.160
  O      132.961     119.281     135.575
  C      134.157     117.544     136.858
  O      135.247     117.542     135.901
  C      134.545     118.535     137.956
  O      133.959     118.441     139.239
  C      136.067     118.520     137.967
  O      136.600     117.609     138.930
  C      136.424     118.067     136.549
  N      140.647     120.096     134.495
  C      140.521     119.003     135.329
  N      141.667     118.398     135.708
  N      139.375     118.555     135.766
  C      138.317     119.303     135.383
  C      138.317     120.417     134.576
  C      139.587     120.872     134.049
  O      139.753     121.827     133.297
  N      137.053     120.927     134.422
  C      136.294     120.138     135.154
  N      137.015     119.131     135.753
  O      130.420     119.229     134.878
  O      131.345     121.091     136.278
  H      137.568     117.709     138.934
  H      130.639     120.689     136.824
  H      141.553     120.383     134.168
  H      135.223     120.247     135.280
  H      137.157     117.252     136.568
  H      136.460     119.511     138.227
  H      142.584     118.764     135.504
  H      134.266     119.534     137.597
  H      141.596     117.738     136.485
  H      134.071     116.515     137.215
  H      132.602     117.298     135.356
  H      132.034     117.967     136.870
  P      132.807     119.386     139.828
  C      130.263     119.204     140.067
  O      131.399     118.830     139.308
  O      132.970     120.749     139.006
  O      132.885     119.636     141.297
  H      132.496     121.474     139.456
  H      129.434     118.536     139.817
  H      129.980     120.231     139.821
  H      130.468     119.129     141.139
  H      132.608     121.382     131.931
  H      131.533     120.021     132.143
  H      133.214     119.885     132.597

 3  4  5  6  7  8  9  10  11  12  23  26  30  31 0
 6-311+G(2d,p)
 ****
 33  35  36  37  38 0
 6-311+G(2d,p)
 ****
 1  2  13  14  15  16  17  18  19  20  21  22  24  25 0
 3-21G
 ****
 27  28  29  32  34  39  40  41  42  43  44  45  46  47  48  49 0
 3-21G
 ****


