%nproc=1
%NoSave
%Mem=1900MB
#P OB98/GEN NMR

erre ene a

0 1
  C     -864.612     193.722    -494.210
  O     -863.230     193.724    -494.594
  P     -862.716     193.300    -496.065
  C     -862.088     195.639    -496.985
  O     -861.609     194.374    -496.540
  C     -861.041     196.741    -496.715
  O     -861.054     197.078    -495.301
  C     -859.595     196.352    -496.978
  O     -859.303     196.289    -498.378
  C     -858.843     197.440    -496.219
  O     -858.707     198.635    -497.025
  C     -859.784     197.709    -495.026
  N     -859.227     197.248    -493.756
  C     -858.305     198.084    -493.141
  O     -857.923     199.119    -493.685
  N     -857.818     197.710    -491.897
  C     -858.155     196.548    -491.397
  N     -857.644     196.258    -490.167
  C     -859.019     195.583    -492.097
  C     -859.514     195.983    -493.260
  O     -863.825     193.098    -497.056
  O     -861.899     191.944    -495.845
  H     -861.907     191.420    -496.665
  H     -858.203     198.388    -497.825
  H     -859.214     194.615    -491.658
  H     -860.166     195.344    -493.827
  H     -859.995     198.805    -494.955
  H     -857.844     197.130    -495.948
  H     -859.391     195.362    -496.525
  H     -861.322     197.634    -497.295
  H     -857.049     196.956    -489.717
  H     -863.015     195.883    -496.458
  H     -857.849     195.385    -489.669
  H     -862.325     195.579    -498.063
  P     -857.901     195.631    -498.783
  C     -858.977     193.677    -500.152
  O     -858.122     194.831    -500.161
  O     -857.675     194.469    -497.709
  O     -856.747     196.598    -498.823
  H     -856.736     194.458    -497.459
  H     -859.401     193.548    -501.137
  H     -859.765     193.782    -499.408
  H     -858.360     192.798    -499.915
  H     -864.700     194.040    -493.192
  H     -865.009     192.733    -494.311
  H     -865.158     194.392    -494.841

 3  4  5  6  7  8  9  10  11  12  13  24  27  28  29  30  32 0
 6-311+G(2d,p)
 ****
 34  35 0
 6-311+G(2d,p)
 ****
 1  2  14  15  16  17  18  19  20  21  22  23  25  26 0
 3-21G
 ****
 31  33  36  37  38  39  40  41  42  43  44  45  46 0
 3-21G
 ****


