%nproc=1
%NoSave
%Mem=1900MB
#P OB98/GEN NMR

erre ene a

0 1
  C      -83.397     136.866     -88.120
  O      -82.934     135.530     -88.156
  P      -81.656     135.071     -87.308
  C      -80.112     135.541     -89.297
  O      -80.367     135.797     -87.923
  C      -78.643     135.194     -89.538
  O      -77.808     136.289     -89.077
  C      -78.176     133.915     -88.828
  O      -77.266     133.249     -89.712
  C      -77.441     134.448     -87.613
  O      -76.516     133.508     -87.082
  C      -76.824     135.725     -88.188
  N      -76.436     136.672     -87.151
  C      -75.112     137.117     -87.162
  O      -74.297     136.611     -87.937
  N      -74.746     138.109     -86.285
  C      -75.577     138.478     -85.359
  N      -75.198     139.510     -84.554
  C      -76.898     137.849     -85.165
  C      -77.278     136.994     -86.113
  O      -81.512     133.596     -87.125
  O      -81.839     135.805     -85.893
  H      -81.780     135.140     -85.179
  H      -75.822     133.989     -86.584
  H      -77.501     138.103     -84.304
  H      -78.242     136.500     -86.075
  H      -75.940     135.484     -88.796
  H      -78.164     134.691     -86.825
  H      -79.001     133.241     -88.581
  H      -78.487     135.102     -90.621
  H      -74.303     139.945     -84.741
  H      -80.364     136.440     -89.864
  H      -75.879     140.069     -84.033
  H      -80.762     134.731     -89.652
  P      -77.356     131.645     -89.833
  C      -75.199     131.297     -88.434
  O      -76.577     131.014     -88.588
  O      -76.343     131.357     -91.046
  O      -78.704     131.079     -90.151
  H      -76.591     130.517     -91.476
  H      -74.823     130.732     -87.575
  H      -75.055     132.362     -88.239
  H      -74.643     130.997     -89.321
  H      -84.255     136.963     -88.751
  H      -82.624     137.521     -88.465
  H      -83.662     137.125     -87.116

 3  4  5  6  7  8  9  10  11  12  13  24  27  28  29  30  32 0
 6-311+G(2d,p)
 ****
 34  35 0
 6-311+G(2d,p)
 ****
 1  2  14  15  16  17  18  19  20  21  22  23  25  26 0
 3-21G
 ****
 31  33  36  37  38  39  40  41  42  43  44  45  46 0
 3-21G
 ****


