%nproc=1
%NoSave
%Mem=1900MB
#P OB98/GEN NMR

erre ene a

0 1
  C      -37.376     -58.802     157.337
  O      -37.098     -59.212     158.663
  H      -37.768     -57.782     157.360
  H      -38.130     -59.460     156.896
  H      -36.466     -58.819     156.732
  P      -36.299     -60.590     158.829
  C      -38.373     -61.703     159.986
  O      -37.392     -61.764     158.959
  C      -38.678     -63.106     160.502
  O      -39.744     -63.075     161.471
  C      -39.188     -64.065     159.439
  O      -38.174     -64.480     158.549
  C      -39.728     -65.191     160.310
  O      -38.694     -66.106     160.694
  C      -40.265     -64.423     161.542
  N      -41.714     -64.454     161.606
  C      -42.270     -65.675     162.013
  O      -41.537     -66.620     162.305
  N      -43.634     -65.799     162.039
  C      -44.379     -64.805     161.666
  N      -45.725     -65.005     161.685
  C      -43.835     -63.504     161.230
  C      -42.506     -63.398     161.223
  O      -35.711     -60.472     160.311
  O      -35.269     -60.845     157.782
  H      -39.092     -66.707     161.357
  H      -36.371     -60.210     160.974
  H      -44.498     -62.702     160.942
  H      -42.021     -62.478     160.917
  H      -39.872     -64.861     162.469
  H      -40.491     -65.773     159.788
  H      -40.032     -63.616     158.899
  H      -37.774     -63.494     160.989
  H      -46.053     -65.930     161.937
  H      -39.286     -61.227     159.616
  H      -46.396     -64.334     161.343
  H      -37.974     -61.078     160.790
  P      -38.427     -64.544     156.970
  C      -38.729     -67.096     157.154
  O      -39.291     -65.872     156.693
  O      -37.208     -64.418     156.122
  O      -39.511     -63.388     156.730
  H      -40.346     -63.503     157.216
  H      -39.389     -67.904     156.915
  H      -38.593     -67.049     158.214
  H      -37.783     -67.255     156.679

 6  7  8  9  10  11  12  13  14  15  16  26  30  31  32  33  35 0
 6-311+G(2d,p)
 ****
 37  38 0
 6-311+G(2d,p)
 ****
 1  2  3  4  5  17  18  19  20  21  22  23  24  25 0
 3-21G
 ****
 27  28  29  34  36  39  40  41  42  43  44  45  46 0
 3-21G
 ****


