%nproc=1
%NoSave
%Mem=1900MB
#P OB98/GEN NMR

erre ene a

0 1
  C     -392.344    -689.538    -153.374
  O     -392.591    -688.323    -152.687
  P     -393.027    -687.000    -153.490
  C     -394.624    -686.251    -151.610
  O     -393.468    -685.936    -152.370
  C     -394.722    -685.343    -150.392
  O     -393.681    -685.637    -149.422
  C     -394.528    -683.860    -150.694
  O     -395.518    -683.228    -151.489
  C     -394.293    -683.299    -149.309
  O     -395.521    -683.096    -148.605
  C     -393.470    -684.438    -148.638
  N     -392.044    -684.103    -148.544
  C     -391.726    -683.150    -147.573
  O     -392.560    -682.608    -146.834
  N     -390.394    -682.795    -147.489
  C     -389.402    -683.284    -148.284
  O     -388.239    -682.896    -148.190
  C     -389.804    -684.274    -149.303
  C     -391.097    -684.636    -149.376
  O     -394.032    -687.215    -154.560
  O     -391.631    -686.406    -154.000
  H     -396.103    -682.567    -149.181
  H     -390.999    -686.184    -153.292
  H     -390.152    -682.106    -146.801
  H     -389.033    -684.666    -149.938
  H     -391.419    -685.358    -150.109
  H     -393.856    -684.653    -147.633
  H     -393.771    -682.331    -149.338
  H     -393.582    -683.757    -151.251
  H     -395.679    -685.534    -149.889
  H     -394.547    -687.302    -151.272
  H     -395.516    -686.162    -152.239
  P     -395.162    -682.319    -152.755
  C     -397.523    -682.317    -153.816
  O     -396.496    -681.552    -153.220
  O     -394.315    -682.934    -153.834
  O     -394.328    -681.119    -152.070
  H     -393.670    -680.773    -152.692
  H     -398.347    -681.643    -154.113
  H     -397.927    -683.044    -153.106
  H     -397.162    -682.821    -154.709
  H     -392.068    -690.296    -152.671
  H     -391.549    -689.396    -154.075
  H     -393.229    -689.840    -153.894

 3  4  5  6  7  8  9  10  11  12  13  23  28  29  30  31  32 0
 6-311+G(2d,p)
 ****
 33  34 0
 6-311+G(2d,p)
 ****
 1  2  14  15  16  17  18  19  20  21  22  24  25  26  27 0
 3-21G
 ****
 35  36  37  38  39  40  41  42  43  44  45 0
 3-21G
 ****


