%nproc=1
%NoSave
%Mem=1900MB
#P OB98/GEN NMR

erre ene a

0 1
  C     -346.323      84.236     -23.483
  O     -346.472      84.486     -24.866
  H     -346.252      85.177     -22.931
  H     -347.199      83.685     -23.129
  H     -345.429      83.631     -23.305
  P     -345.333      85.380     -25.554
  C     -344.584      87.855     -25.394
  O     -345.520      86.870     -24.986
  C     -345.288      89.189     -25.614
  O     -345.822      89.684     -24.367
  C     -344.391      90.305     -26.138
  O     -344.161      90.190     -27.536
  C     -345.239      91.524     -25.808
  O     -346.257      91.694     -26.812
  C     -345.882      91.131     -24.469
  N     -345.515      95.257     -21.436
  C     -346.280      95.000     -22.521
  N     -346.318      93.890     -23.283
  C     -345.461      92.967     -22.821
  C     -344.615      93.082     -21.727
  C     -344.657      94.297     -21.022
  N     -343.859      94.553     -19.927
  N     -343.889      91.927     -21.545
  C     -344.284      91.122     -22.512
  N     -345.228      91.708     -23.312
  O     -345.821      85.502     -27.076
  O     -343.948      84.831     -25.467
  H     -345.795      91.786     -27.666
  H     -345.039      85.502     -27.660
  H     -346.958      95.799     -22.815
  H     -343.922      90.113     -22.663
  H     -346.942      91.409     -24.436
  H     -344.662      92.451     -25.768
  H     -343.451      90.356     -25.579
  H     -346.133      89.018     -26.295
  H     -344.111      87.542     -26.330
  H     -344.072      95.351     -19.350
  H     -343.226      93.825     -19.619
  H     -343.814      87.954     -24.621
  P     -342.815      90.845     -28.120
  C     -341.781      93.224     -28.016
  O     -342.939      92.418     -27.824
  O     -343.026      90.753     -29.703
  O     -341.551      90.188     -27.686
  H     -342.159      90.741     -30.153
  H     -342.012      94.242     -27.782
  H     -341.464      93.156     -29.036
  H     -340.997      92.880     -27.375

 6  7  8  9  10  11  12  13  14  15  25  28  32  33  34  35 0
 6-311+G(2d,p)
 ****
 36  39  40 0
 6-311+G(2d,p)
 ****
 1  2  3  4  5  16  17  18  19  20  21  22  23  24 0
 3-21G
 ****
 26  27  29  30  31  37  38  41  42  43  44  45  46  47  48 0
 3-21G
 ****


