%nproc=1
%NoSave
%Mem=1900MB
#P OB98/GEN NMR

erre ene a

0 1
  C       12.461     660.388    -100.584
  O       13.438     659.618     -99.914
  H       11.705     659.730    -101.028
  H       11.968     661.040     -99.855
  H       12.923     661.006    -101.358
  P       14.301     658.611    -100.818
  C       16.168     660.398    -100.603
  O       15.491     659.481    -101.449
  C       17.552     659.865    -100.240
  O       18.295     659.554    -101.439
  C       18.426     660.835     -99.453
  O       18.086     660.849     -98.076
  C       19.802     660.229     -99.686
  O       19.984     659.099     -98.809
  C       19.705     659.750    -101.141
  N       23.345     660.517    -104.659
  C       23.007     659.429    -103.930
  N       22.012     659.296    -103.028
  C       21.313     660.438    -102.923
  C       21.518     661.616    -103.618
  C       22.600     661.639    -104.523
  N       22.971     662.779    -105.214
  N       20.599     662.581    -103.236
  C       19.867     661.991    -102.310
  N       20.256     660.699    -102.093
  O       13.326     658.335    -102.066
  O       14.704     657.341    -100.146
  H       19.943     659.441     -97.894
  H       12.846     657.499    -101.917
  H       23.631     658.549    -104.087
  H       19.059     662.460    -101.771
  H       20.204     658.785    -101.301
  H       20.623     660.930     -99.491
  H       18.400     661.844     -99.891
  H       17.413     658.929     -99.686
  H       15.588     660.546     -99.687
  H       23.965     662.816    -105.436
  H       22.548     663.638    -104.873
  H       16.254     661.357    -101.127
  P       18.502     662.139     -97.218
  C       16.960     663.615     -98.682
  O       18.270     663.417     -98.170
  O       20.101     662.011     -97.133
  O       17.895     662.225     -95.858
  H       20.381     662.010     -96.201
  H       16.945     664.492     -99.294
  H       16.274     663.735     -97.870
  H       16.674     662.766     -99.268

 6  7  8  9  10  11  12  13  14  15  25  28  32  33  34  35 0
 6-311+G(2d,p)
 ****
 36  39  40 0
 6-311+G(2d,p)
 ****
 1  2  3  4  5  16  17  18  19  20  21  22  23  24 0
 3-21G
 ****
 26  27  29  30  31  37  38  41  42  43  44  45  46  47  48 0
 3-21G
 ****


