%nproc=1
%NoSave
%Mem=1900MB
#P OB98/GEN NMR

erre ene a

0 1
  C     -276.163     315.073      83.978
  O     -277.307     315.724      83.421
  P     -278.515     314.779      82.943
  C     -278.804     312.837      81.230
  O     -277.949     313.834      81.770
  C     -278.953     313.013      79.718
  O     -279.714     314.198      79.408
  C     -277.635     313.183      78.972
  O     -276.990     311.933      78.756
  C     -278.117     313.780      77.656
  O     -278.570     312.725      76.782
  C     -279.298     314.656      78.094
  N     -277.987     318.816      75.503
  C     -278.253     317.533      75.054
  N     -278.181     317.343      73.716
  N     -278.556     316.536      75.839
  C     -278.623     316.878      77.146
  C     -278.379     318.110      77.718
  C     -278.007     319.202      76.838
  O     -277.734     320.346      77.194
  N     -278.545     318.075      79.082
  C     -278.921     316.834      79.332
  N     -278.966     316.065      78.191
  O     -279.478     315.791      82.163
  O     -279.221     314.080      84.056
  H     -277.780     312.210      76.528
  H     -280.400     315.468      82.192
  H     -277.749     319.545      74.854
  H     -279.170     316.443      80.311
  H     -280.161     314.549      77.427
  H     -277.329     314.317      77.123
  H     -278.024     318.085      73.048
  H     -276.985     313.899      79.489
  H     -278.407     316.422      73.364
  H     -279.496     312.141      79.326
  H     -279.789     312.890      81.701
  H     -278.394     311.848      81.467
  P     -275.637     311.660      79.577
  C     -273.155     312.341      79.240
  O     -274.475     312.381      78.740
  O     -275.379     310.096      79.336
  O     -275.716     312.001      81.030
  H     -274.894     309.717      80.089
  H     -272.904     311.346      79.622
  H     -273.041     313.079      80.042
  H     -272.460     312.591      78.430
  H     -275.435     315.806      84.255
  H     -275.742     314.409      83.252
  H     -276.456     314.516      84.844

 3  4  5  6  7  8  9  10  11  12  23  26  30  31  33  0
 6-311+G(2d,p)
 ****
 35  36  37  38 0
 6-311+G(2d,p)
 ****
 1  2  13  14  15  16  17  18  19  20  21  22  24  25  27  28  29 0
 3-21G
 ****
 32  34  39  40  41  42  43  44  45  46  47  48  49 0
 3-21G
 ****


