%nproc=1
%NoSave
%Mem=1900MB
#P OB98/GEN NMR

erre ene a

0 1
  C      -13.785      41.301     -19.433
  O      -12.940      40.867     -18.362
  P      -11.563      41.656     -18.137
  C       -9.986      40.204     -19.599
  O      -10.635      41.454     -19.431
  C       -8.519      40.385     -20.018
  O       -7.837      39.102     -20.079
  C       -8.353      41.040     -21.391
  O       -7.128      41.783     -21.391
  C       -8.194      39.845     -22.310
  O       -7.604      40.211     -23.558
  C       -7.351      38.929     -21.426
  N       -5.903      35.570     -24.896
  C       -5.660      36.926     -24.815
  N       -4.888      37.460     -25.785
  N       -6.132      37.693     -23.866
  C       -6.858      37.012     -22.946
  C       -7.175      35.674     -22.920
  C       -6.667      34.844     -23.990
  O       -6.862      33.640     -24.120
  N       -7.955      35.366     -21.835
  C       -8.114      36.517     -21.211
  N       -7.439      37.538     -21.825
  O      -10.829      40.782     -17.014
  O      -11.742      43.069     -17.690
  H       -7.314      39.382     -23.997
  H      -10.835      41.262     -16.166
  H       -5.524      35.029     -25.655
  H       -8.704      36.668     -20.319
  H       -6.287      39.198     -21.443
  H       -9.176      39.398     -22.514
  H       -4.451      36.918     -26.515
  H       -9.174      41.698     -21.690
  H       -4.660      38.445     -25.726
  H       -8.011      40.989     -19.257
  H      -10.506      39.607     -20.353
  H      -10.065      39.635     -18.667
  P       -7.248      43.381     -21.381
  C       -7.023      43.690     -23.948
  O       -7.851      43.792     -22.806
  O       -5.727      43.873     -21.462
  O       -7.957      43.946     -20.195
  H       -5.638      44.763     -21.079
  H       -7.306      42.801     -24.516
  H       -5.963      43.631     -23.684
  H       -7.179      44.574     -24.573
  H      -14.662      40.689     -19.465
  H      -13.257      41.217     -20.360
  H      -14.067      42.321     -19.274

 3  4  5  6  7  8  9  10  11  12  23  26  30  31 0
 6-311+G(2d,p)
 ****
 33  35  36  37  38 0
 6-311+G(2d,p)
 ****
 1  2  13  14  15  16  17  18  19  20  21  22  24  25 0
 3-21G
 ****
 27  28  29  32  34  39  40  41  42  43  44  45  46  47  48  49 0
 3-21G
 ****


