%nproc=1
%NoSave
%Mem=1900MB
#P OB98/GEN NMR

erre ene a

0 1
  C      743.263    -642.552     331.799
  O      744.517    -642.038     332.234
  P      745.926    -642.743     331.971
  C      746.015    -644.606     333.817
  O      745.814    -644.266     332.455
  C      746.185    -646.113     334.028
  O      747.500    -646.536     333.580
  C      746.126    -646.453     335.533
  O      744.870    -646.614     336.171
  C      747.073    -647.637     335.704
  O      746.396    -648.889     335.645
  C      748.038    -647.479     334.527
  N      753.011    -648.666     334.747
  C      751.950    -649.427     334.298
  N      752.243    -650.684     333.898
  N      750.719    -648.998     334.246
  C      750.551    -647.754     334.764
  C      751.520    -646.909     335.269
  C      752.899    -647.376     335.261
  O      753.874    -646.737     335.636
  N      750.975    -645.734     335.733
  C      749.687    -645.884     335.513
  N      749.369    -647.086     334.946
  O      747.120    -641.978     332.430
  O      745.997    -642.849     330.366
  H      745.859    -648.905     334.836
  H      746.939    -642.763     330.118
  H      753.946    -649.041     334.743
  H      748.927    -645.155     335.775
  H      748.142    -648.434     333.985
  H      747.569    -647.592     336.683
  H      753.148    -651.107     333.997
  H      746.603    -645.612     336.075
  H      751.453    -651.307     333.754
  H      745.470    -646.681     333.443
  H      745.146    -644.234     334.367
  H      746.892    -644.075     334.205
  P      744.159    -645.543     337.123
  C      745.383    -646.704     339.049
  O      744.975    -645.462     338.490
  O      742.803    -646.282     337.570
  O      743.853    -644.222     336.488
  H      742.167    -645.632     337.941
  H      745.649    -646.548     340.107
  H      746.252    -647.079     338.530
  H      744.567    -647.434     338.992
  H      742.481    -641.889     332.104
  H      743.103    -643.517     332.233
  H      743.263    -642.637     330.732

 3  4  5  6  7  8  9  10  11  12  23  26  30  31 0
 6-311+G(2d,p)
 ****
 33  35  36  37  38 0
 6-311+G(2d,p)
 ****
 1  2  13  14  15  16  17  18  19  20  21  22  24  25 0
 3-21G
 ****
 27  28  29  32  34  39  40  41  42  43  44  45  46  47  48  49 0
 3-21G
 ****


