%nproc=1
%NoSave
%Mem=1900MB
#P OB98/GEN NMR

erre ene a

0 1
  C      166.553     -32.046     -39.223
  O      167.052     -32.122     -40.544
  H      166.435     -33.061     -38.836
  H      165.578     -31.551     -39.207
  H      167.255     -31.506     -38.582
  P      167.239     -30.763     -41.369
  C      165.658     -29.008     -42.424
  O      165.765     -30.227     -41.695
  C      164.206     -28.538     -42.474
  O      163.765     -28.134     -41.162
  C      163.972     -27.333     -43.379
  O      163.999     -27.718     -44.738
  C      162.627     -26.852     -42.860
  O      161.558     -27.660     -43.376
  C      162.793     -27.076     -41.336
  N      163.201     -25.875     -40.614
  C      162.210     -24.904     -40.428
  O      161.078     -25.078     -40.875
  N      162.542     -23.753     -39.755
  C      163.735     -23.603     -39.273
  N      163.997     -22.443     -38.614
  C      164.797     -24.617     -39.418
  C      164.468     -25.711     -40.101
  O      168.150     -30.830     -42.556
  O      167.770     -29.719     -40.278
  H      161.570     -28.490     -42.858
  H      168.745     -29.684     -40.283
  H      165.776     -24.454     -38.991
  H      165.191     -26.507     -40.253
  H      161.853     -27.434     -40.898
  H      162.417     -25.822     -43.147
  H      164.718     -26.556     -43.176
  H      163.586     -29.388     -42.784
  H      163.229     -21.785     -38.523
  H      166.025     -29.206     -43.437
  H      164.828     -22.288     -38.063
  H      166.290     -28.233     -41.975
  P      164.484     -26.711     -45.886
  C      163.421     -24.674     -47.041
  O      163.413     -25.513     -45.897
  O      164.738     -27.337     -47.215
  O      165.776     -26.011     -45.253
  H      166.554     -26.621     -45.297
  H      162.670     -23.919     -46.935
  H      163.218     -25.259     -47.914
  H      164.381     -24.212     -47.137

 6  7  8  9  10  11  12  13  14  15  16  26  30  31  32  33  35 0
 6-311+G(2d,p)
 ****
 37  38 0
 6-311+G(2d,p)
 ****
 1  2  3  4  5  17  18  19  20  21  22  23  24  25 0
 3-21G
 ****
 27  28  29  34  36  39  40  41  42  43  44  45  46 0
 3-21G
 ****


