%nproc=1
%NoSave
%Mem=1900MB
#P OB98/GEN NMR

erre ene a

0 1
  C      454.028     166.754    -288.971
  O      454.974     166.304    -288.022
  H      453.414     167.531    -288.509
  H      453.377     165.932    -289.283
  H      454.533     167.180    -289.841
  P      455.976     165.126    -288.440
  C      454.723     163.393    -286.992
  O      455.950     164.067    -287.234
  C      454.868     162.442    -285.805
  O      453.612     161.797    -285.522
  C      455.889     161.328    -286.014
  O      457.207     161.798    -285.768
  C      455.425     160.328    -284.969
  O      455.849     160.760    -283.662
  C      453.893     160.438    -285.085
  N      452.348     155.664    -285.875
  C      453.058     156.203    -284.817
  N      453.432     155.342    -283.844
  N      453.378     157.470    -284.724
  C      452.997     158.198    -285.798
  C      452.308     157.773    -286.915
  C      451.902     156.387    -286.971
  O      451.252     155.871    -287.880
  N      452.184     158.776    -287.838
  C      452.749     159.821    -287.263
  N      453.270     159.519    -286.023
  O      457.353     165.550    -288.849
  O      455.210     164.356    -289.617
  H      456.822     160.832    -283.684
  H      455.455     164.712    -290.490
  H      452.139     154.682    -285.894
  H      452.809     160.813    -287.693
  H      453.394     160.292    -284.121
  H      455.835     159.325    -285.127
  H      453.351     154.342    -283.931
  H      455.796     160.876    -287.007
  H      454.003     155.710    -283.092
  H      455.122     163.044    -284.922
  H      454.471     162.835    -287.897
  H      453.922     164.112    -286.788
  P      458.205     162.162    -286.973
  C      458.975     159.731    -287.410
  O      459.334     161.021    -286.946
  O      458.728     163.553    -286.952
  O      457.390     161.788    -288.292
  H      456.791     162.518    -288.596
  H      459.819     159.077    -287.335
  H      458.662     159.794    -288.431
  H      458.173     159.348    -286.814

 6  7  8  9  10  11  12  13  14  15  26  29  33  34 0
 6-311+G(2d,p)
 ****
 36  38  39  40  41 0
 6-311+G(2d,p)
 ****
 1  2  3  4  5  16  17  18  19  20  21  22  23  24  25 0
 3-21G
 ****
 27  28  30  31  32  35  37  42  43  44  45  46  47 0
 3-21G
 ****
 48  49 0
 3-21G
 ****


