%nproc=1
%NoSave
%Mem=1900MB
#P OB98/GEN NMR

erre ene a

0 1
  C       33.256    -425.480     215.865
  O       34.506    -425.052     215.308
  P       35.907    -425.761     215.635
  C       36.362    -426.454     213.182
  O       36.166    -426.890     214.522
  C       36.606    -427.646     212.252
  O       35.453    -428.521     212.242
  C       36.818    -427.296     210.787
  O       38.089    -426.720     210.547
  C       36.605    -428.654     210.121
  O       37.805    -429.438     210.142
  C       35.540    -429.299     211.028
  N       34.241    -429.416     210.384
  C       34.051    -430.520     209.551
  O       34.977    -431.296     209.322
  N       32.814    -430.705     208.982
  C       31.887    -429.813     209.148
  N       30.677    -430.062     208.577
  C       32.094    -428.567     209.906
  C       33.281    -428.435     210.494
  O       36.021    -426.267     217.035
  O       37.024    -424.656     215.327
  H       37.818    -424.835     215.866
  H       37.574    -430.320     209.787
  H       31.308    -427.829     209.983
  H       33.512    -427.553     211.084
  H       35.871    -430.294     211.347
  H       36.303    -428.557     209.075
  H       36.028    -426.605     210.462
  H       37.469    -428.207     212.638
  H       30.568    -430.931     208.069
  H       37.240    -425.799     213.155
  H       29.883    -429.443     208.662
  H       35.489    -425.878     212.860
  P       38.204    -425.124     210.687
  C       39.650    -425.177     212.841
  O       38.432    -424.788     212.237
  O       36.713    -424.613     210.400
  O       39.184    -424.492     209.756
  H       36.746    -423.790     209.879
  H       39.861    -424.494     213.671
  H       40.483    -425.140     212.135
  H       39.552    -426.191     213.235
  H       32.469    -424.854     215.499
  H       33.299    -425.412     216.932
  H       33.067    -426.494     215.580

 3  4  5  6  7  8  9  10  11  12  13  24  27  28  29  30  32 0
 6-311+G(2d,p)
 ****
 34  35 0
 6-311+G(2d,p)
 ****
 1  2  14  15  16  17  18  19  20  21  22  23  25  26 0
 3-21G
 ****
 31  33  36  37  38  39  40  41  42  43  44  45  46 0
 3-21G
 ****


