%nproc=1
%NoSave
%Mem=1900MB
#P OB98/GEN NMR

erre ene a

0 1
  C      -14.896     338.348     -49.346
  O      -15.305     339.329     -50.280
  H      -14.964     337.367     -49.820
  H      -15.551     338.360     -48.469
  H      -13.860     338.519     -49.040
  P      -15.335     340.860     -49.815
  C      -12.845     341.169     -50.429
  O      -13.829     341.233     -49.405
  C      -11.469     341.499     -49.861
  O      -10.466     341.412     -50.893
  C      -11.353     342.902     -49.268
  O      -11.878     342.932     -47.952
  C       -9.845     343.094     -49.298
  O       -9.243     342.356     -48.219
  C       -9.474     342.448     -50.647
  N       -6.563     345.025     -53.910
  C       -6.208     344.295     -52.790
  N       -4.894     344.275     -52.480
  N       -7.064     343.654     -52.038
  C       -8.349     343.821     -52.428
  C       -8.826     344.533     -53.504
  C       -7.861     345.181     -54.368
  O       -8.133     345.817     -55.383
  N      -10.196     344.551     -53.528
  C      -10.547     343.809     -52.495
  N       -9.460     343.348     -51.788
  O      -16.353     341.210     -48.773
  O      -15.557     341.680     -51.171
  H       -9.674     342.648     -47.395
  H      -16.505     341.838     -51.336
  H       -5.858     345.502     -54.445
  H      -11.566     343.568     -52.217
  H       -8.492     341.964     -50.613
  H       -9.549     344.137     -49.182
  H       -4.210     344.866     -52.930
  H      -11.821     343.650     -49.915
  H       -4.622     343.795     -51.630
  H      -11.223     340.735     -49.113
  H      -13.125     341.894     -51.200
  H      -12.827     340.171     -50.881
  P      -12.118     344.317     -47.174
  C      -14.664     344.404     -47.616
  O      -13.398     344.980     -47.873
  O      -10.921     345.202     -47.092
  O      -12.705     343.878     -45.757
  H      -11.999     343.656     -45.098
  H      -15.418     344.948     -48.146
  H      -14.867     344.443     -46.566
  H      -14.665     343.385     -47.941

 6  7  8  9  10  11  12  13  14  15  26  29  33  34 0
 6-311+G(2d,p)
 ****
 36  38  39  40  41 0
 6-311+G(2d,p)
 ****
 1  2  3  4  5  16  17  18  19  20  21  22  23  24  25 0
 3-21G
 ****
 27  28  30  31  32  35  37  42  43  44  45  46  47 0
 3-21G
 ****
 48  49 0
 3-21G
 ****


