%nproc=1
%NoSave
%Mem=1900MB
#P OB98/GEN NMR

erre ene a

0 1
  C     -619.481     137.911     116.103
  O     -618.420     138.266     116.995
  P     -617.741     137.106     117.875
  C     -619.054     137.565     120.061
  O     -618.789     136.643     119.000
  C     -620.045     136.959     121.070
  O     -619.369     135.917     121.819
  C     -620.582     137.945     122.113
  O     -621.764     138.678     121.802
  C     -620.954     136.992     123.251
  O     -622.251     136.425     123.012
  C     -619.896     135.899     123.168
  N     -618.733     136.332     128.136
  C     -619.913     136.150     127.500
  N     -620.130     136.048     126.173
  C     -618.986     136.131     125.486
  C     -617.708     136.305     126.006
  C     -617.600     136.411     127.395
  N     -616.403     136.607     128.053
  N     -616.765     136.350     124.987
  C     -617.475     136.215     123.879
  N     -618.811     136.073     124.118
  O     -616.355     137.380     118.358
  O     -617.753     135.851     116.863
  H     -622.252     136.120     122.085
  H     -616.935     135.340     116.984
  H     -620.791     136.082     128.133
  H     -617.057     136.236     122.877
  H     -620.310     134.898     123.343
  H     -621.010     137.507     124.220
  H     -619.799     138.627     122.441
  H     -620.882     136.495     120.519
  H     -619.468     138.481     119.643
  H     -616.424     136.714     129.056
  H     -615.560     136.722     127.513
  H     -618.096     137.820     120.512
  P     -621.687     140.191     121.269
  C     -622.172     140.950     123.737
  O     -621.386     141.096     122.561
  O     -622.869     140.640     120.461
  O     -620.300     140.217     120.483
  H     -619.507     140.129     121.050
  H     -621.677     141.473     124.554
  H     -622.276     139.897     124.009
  H     -623.157     141.394     123.569
  H     -619.826     138.786     115.593
  H     -620.287     137.483     116.661
  H     -619.123     137.199     115.389

 3  4  5  6  7  8  9  10  11  12  22  25  29  30  31  32 0
 6-311+G(2d,p)
 ****
 33  36  37 0
 6-311+G(2d,p)
 ****
 1  2  13  14  15  16  17  18  19  20  21  23  24  26 0
 3-21G
 ****
 27  28  34  35  38  39  40  41  42  43  44  45  46  47  48 0
 3-21G
 ****


