%nproc=1
%NoSave
%Mem=1900MB
#P OB98/GEN NMR

erre ene a

0 1
  C      321.204    -142.386     491.138
  O      319.811    -142.248     490.945
  H      321.378    -143.097     491.953
  H      321.652    -141.425     491.406
  H      321.673    -142.773     490.227
  P      319.347    -141.159     489.857
  C      319.450    -139.258     491.637
  O      319.953    -139.778     490.414
  C      320.021    -137.859     491.875
  O      319.416    -137.247     493.030
  C      321.528    -137.834     492.134
  O      322.286    -137.957     490.947
  C      321.669    -136.458     492.761
  O      321.596    -135.451     491.733
  C      320.425    -136.410     493.677
  N      320.690    -136.880     495.035
  C      320.605    -135.922     496.052
  O      320.338    -134.749     495.796
  N      320.869    -136.312     497.350
  C      321.176    -137.541     497.607
  N      321.439    -137.870     498.909
  C      321.254    -138.582     496.573
  C      321.008    -138.190     495.320
  O      317.779    -140.993     490.131
  O      319.692    -141.468     488.436
  H      321.865    -134.610     492.146
  H      317.420    -140.249     489.589
  H      321.526    -139.600     496.827
  H      321.048    -138.902     494.501
  H      320.012    -135.396     493.725
  H      322.624    -136.324     493.277
  H      321.816    -138.592     492.878
  H      319.760    -137.237     491.000
  H      321.438    -137.124     499.588
  H      319.749    -139.927     492.451
  H      321.859    -138.747     499.175
  H      318.355    -139.202     491.605
  P      323.829    -138.413     491.099
  C      324.854    -136.332     489.918
  O      324.716    -137.070     491.132
  O      324.155    -139.040     489.662
  O      324.093    -139.379     492.216
  H      324.735    -139.829     489.751
  H      325.466    -135.471     490.091
  H      323.888    -136.021     489.578
  H      325.311    -136.951     489.175

 6  7  8  9  10  11  12  13  14  15  16  26  30  31  32  33  35 0
 6-311+G(2d,p)
 ****
 37  38 0
 6-311+G(2d,p)
 ****
 1  2  3  4  5  17  18  19  20  21  22  23  24  25 0
 3-21G
 ****
 27  28  29  34  36  39  40  41  42  43  44  45  46 0
 3-21G
 ****


