%nproc=1
%NoSave
%Mem=1900MB
#P OB98/GEN NMR

erre ene a

0 1
  C       29.651      23.984     288.541
  O       29.029      23.338     289.648
  P       27.708      23.844     290.381
  C       26.423      21.561     290.597
  O       27.101      22.636     291.233
  C       25.594      20.755     291.610
  O       26.491      19.873     292.350
  C       24.889      21.649     292.635
  O       23.554      21.245     292.921
  C       25.869      21.670     293.796
  O       25.280      22.056     295.028
  C       26.455      20.262     293.743
  N       29.210      19.329     297.938
  C       27.844      19.466     297.800
  N       27.109      19.359     298.928
  N       27.249      19.706     296.663
  C       28.104      19.870     295.629
  C       29.476      19.773     295.641
  C       30.121      19.457     296.897
  O       31.327      19.303     297.070
  N       30.004      19.991     294.394
  C       28.956      20.240     293.635
  N       27.776      20.169     294.339
  O       26.751      24.620     289.540
  O       28.263      24.839     291.523
  H       24.537      21.451     295.205
  H       27.580      25.530     291.641
  H       29.613      19.121     298.835
  H       28.990      20.461     292.575
  H       25.836      19.538     294.276
  H       26.641      22.416     293.564
  H       27.509      19.298     299.850
  H       24.771      22.667     292.247
  H       26.141      19.679     298.857
  H       24.881      20.130     291.063
  H       27.204      20.925     290.166
  H       25.802      21.925     289.778
  P       22.187      21.973     292.532
  C       20.792      19.830     292.364
  O       20.967      21.065     293.030
  O       22.093      21.857     290.941
  O       22.102      23.404     292.951
  H       22.088      22.751     290.544
  H       19.799      19.440     292.602
  H       21.544      19.116     292.709
  H       20.873      19.957     291.281
  H       30.520      23.432     288.248
  H       29.937      24.976     288.822
  H       28.964      24.029     287.722

 3  4  5  6  7  8  9  10  11  12  23  26  30  31 0
 6-311+G(2d,p)
 ****
 33  35  36  37  38 0
 6-311+G(2d,p)
 ****
 1  2  13  14  15  16  17  18  19  20  21  22  24  25 0
 3-21G
 ****
 27  28  29  32  34  39  40  41  42  43  44  45  46  47  48  49 0
 3-21G
 ****


