%nproc=1
%NoSave
%Mem=1900MB
#P OB98/GEN NMR

erre ene a

0 1
  C     -311.803    -169.111    -896.390
  O     -312.289    -170.376    -896.780
  H     -310.732    -169.193    -896.200
  H     -312.297    -168.800    -895.460
  H     -311.963    -168.360    -897.160
  P     -313.729    -170.415    -897.490
  C     -314.863    -170.870    -895.200
  O     -314.679    -171.302    -896.540
  C     -316.088    -171.570    -894.590
  O     -317.287    -171.142    -895.330
  C     -316.025    -173.107    -894.630
  O     -316.632    -173.628    -893.440
  C     -316.938    -173.448    -895.800
  O     -317.458    -174.768    -895.720
  C     -317.995    -172.344    -895.670
  N     -322.381    -173.508    -897.820
  C     -321.974    -173.625    -896.510
  N     -322.832    -174.190    -895.630
  N     -320.806    -173.210    -896.080
  C     -320.041    -172.653    -897.060
  C     -320.331    -172.473    -898.390
  C     -321.622    -172.944    -898.850
  O     -322.031    -172.894    -900.000
  N     -319.281    -171.919    -899.050
  C     -318.335    -171.775    -898.120
  N     -318.759    -172.202    -896.910
  O     -313.475    -171.363    -898.760
  O     -314.283    -169.087    -897.890
  H     -317.854    -175.003    -896.590
  H     -313.269    -170.815    -899.530
  H     -323.289    -173.849    -898.090
  H     -317.334    -171.379    -898.310
  H     -318.725    -172.564    -894.860
  H     -316.386    -173.342    -896.740
  H     -323.769    -174.495    -895.870
  H     -315.029    -173.512    -894.730
  H     -322.563    -174.243    -894.670
  H     -316.210    -171.201    -893.550
  H     -315.021    -169.793    -895.190
  H     -313.969    -171.111    -894.620
  P     -315.724    -173.737    -892.120
  C     -315.370    -176.276    -892.590
  O     -315.718    -175.272    -891.640
  O     -316.609    -173.011    -890.990
  O     -314.379    -173.086    -892.260
  H     -316.017    -172.548    -890.360
  H     -315.411    -177.238    -892.124
  H     -314.379    -176.097    -892.951
  H     -316.059    -176.247    -893.408

 6  7  8  9  10  11  12  13  14  15  26  29  33  34 0
 6-311+G(2d,p)
 ****
 36  38  39  40  41 0
 6-311+G(2d,p)
 ****
 1  2  3  4  5  16  17  18  19  20  21  22  23  24  25 0
 3-21G
 ****
 27  28  30  31  32  35  37  42  43  44  45  46  47 0
 3-21G
 ****
 48  49 0
 3-21G
 ****


