%nproc=1
%NoSave
%Mem=1900MB
#P OB98/GEN NMR

erre ene a

0 1
  C      151.732    -438.599      48.075
  O      152.015    -437.337      48.647
  P      151.763    -435.998      47.803
  C      149.876    -435.155      49.385
  O      150.249    -435.548      48.084
  C      149.304    -433.731      49.390
  O      148.775    -433.469      50.711
  C      150.324    -432.630      49.126
  O      149.622    -431.441      48.747
  C      150.940    -432.440      50.494
  O      151.590    -431.179      50.622
  C      149.734    -432.664      51.439
  N      150.139    -433.344      52.682
  C      150.643    -432.542      53.701
  O      150.693    -431.314      53.626
  N      151.175    -433.207      54.774
  C      151.281    -434.560      54.891
  O      152.019    -435.122      55.692
  C      150.520    -435.342      53.905
  C      150.011    -434.710      52.846
  O      151.732    -436.531      46.295
  O      152.786    -434.932      47.994
  H      150.884    -430.503      50.743
  H      152.603    -436.415      45.878
  H      151.673    -432.632      55.443
  H      150.451    -436.414      54.047
  H      149.488    -435.269      52.076
  H      149.257    -431.715      51.714
  H      151.694    -433.219      50.658
  H      151.072    -432.882      48.372
  H      148.473    -433.669      48.675
  H      150.743    -435.222      50.046
  H      149.123    -435.844      49.788
  P      150.391    -430.381      47.822
  C      150.455    -432.142      45.954
  O      151.205    -431.234      46.737
  O      151.178    -429.335      48.542
  O      149.206    -429.738      46.951
  H      149.498    -428.889      46.575
  H      150.943    -432.255      44.984
  H      149.429    -431.790      45.801
  H      150.430    -433.115      46.457
  H      151.961    -439.370      48.781
  H      152.326    -438.733      47.195
  H      150.695    -438.649      47.816

 3  4  5  6  7  8  9  10  11  12  13  23  28  29  30  31  32 0
 6-311+G(2d,p)
 ****
 33  34 0
 6-311+G(2d,p)
 ****
 1  2  14  15  16  17  18  19  20  21  22  24  25  26  27 0
 3-21G
 ****
 35  36  37  38  39  40  41  42  43  44  45 0
 3-21G
 ****


