%nproc=1
%NoSave
%Mem=1900MB
#P OB98/GEN NMR

erre ene a

0 1
  C     -105.410     -43.039     -59.378
  O     -105.600     -41.726     -59.890
  P     -104.362     -41.039     -60.652
  C     -102.010     -40.233     -59.899
  O     -103.313     -40.647     -59.503
  C     -101.599     -38.969     -59.151
  O     -102.562     -37.921     -59.378
  C     -101.513     -39.127     -57.640
  O     -100.286     -39.706     -57.229
  C     -101.591     -37.676     -57.193
  O     -100.307     -37.045     -57.357
  C     -102.600     -37.089     -58.187
  N     -106.197     -34.099     -56.121
  C     -104.913     -33.858     -56.462
  N     -104.015     -34.710     -56.998
  C     -104.548     -35.936     -57.140
  C     -105.829     -36.339     -56.801
  C     -106.682     -35.355     -56.277
  N     -108.000     -35.595     -55.957
  N     -106.010     -37.674     -57.091
  C     -104.864     -38.068     -57.605
  N     -103.952     -37.052     -57.665
  O     -104.959     -39.625     -61.105
  O     -103.819     -41.816     -61.801
  H     -100.428     -36.100     -57.147
  H     -104.454     -39.278     -61.865
  H     -104.564     -32.843     -56.291
  H     -104.655     -39.070     -57.953
  H     -102.337     -36.071     -58.495
  H     -101.868     -37.570     -56.140
  H     -102.378     -39.678     -57.248
  H     -100.635     -38.635     -59.557
  H     -102.012     -40.028     -60.973
  H     -108.591     -34.802     -55.764
  H     -108.410     -36.471     -56.261
  H     -101.302     -41.043     -59.698
  P     -100.335     -40.675     -55.949
  C     -101.047     -40.348     -53.472
  O     -100.892     -39.768     -54.753
  O      -98.789     -40.883     -55.593
  O     -101.043     -41.967     -56.188
  H      -98.658     -41.727     -55.120
  H     -101.128     -39.547     -52.732
  H     -100.187     -40.974     -53.215
  H     -101.961     -40.948     -53.444
  H     -106.309     -43.369     -58.900
  H     -104.610     -43.033     -58.668
  H     -105.169     -43.704     -60.181

 3  4  5  6  7  8  9  10  11  12  22  25  29  30  31  32 0
 6-311+G(2d,p)
 ****
 33  36  37 0
 6-311+G(2d,p)
 ****
 1  2  13  14  15  16  17  18  19  20  21  23  24  26 0
 3-21G
 ****
 27  28  34  35  38  39  40  41  42  43  44  45  46  47  48 0
 3-21G
 ****


