%nproc=1
%NoSave
%Mem=1900MB
#P OB98/GEN NMR

erre ene a

0 1
  C     -756.118     203.878    -774.470
  O     -755.522     205.004    -773.822
  P     -756.028     205.363    -772.327
  C     -754.663     207.564    -772.684
  O     -755.141     206.585    -771.772
  C     -753.850     208.624    -771.957
  O     -754.679     209.447    -771.083
  C     -752.750     208.059    -771.051
  O     -751.596     207.726    -771.800
  C     -752.490     209.244    -770.147
  O     -751.641     210.191    -770.808
  C     -753.882     209.842    -769.943
  N     -756.048     211.336    -765.538
  C     -755.442     212.020    -766.552
  N     -754.879     211.546    -767.671
  C     -755.007     210.224    -767.740
  C     -755.592     209.384    -766.792
  C     -756.126     209.992    -765.660
  N     -756.765     209.269    -764.659
  N     -755.506     208.067    -767.201
  C     -754.891     208.114    -768.380
  N     -754.556     209.383    -768.730
  O     -755.507     204.097    -771.472
  O     -757.498     205.535    -772.204
  H     -751.613     211.002    -770.264
  H     -756.145     203.910    -770.765
  H     -755.411     213.126    -766.409
  H     -754.671     207.249    -768.997
  H     -753.869     210.938    -769.925
  H     -751.984     208.970    -769.223
  H     -753.131     207.208    -770.475
  H     -753.398     209.290    -772.725
  H     -755.512     208.023    -773.214
  H     -757.147     209.804    -763.869
  H     -756.835     208.272    -764.742
  H     -754.061     207.064    -773.450
  P     -751.144     206.194    -771.805
  C     -748.575     206.644    -771.686
  O     -749.682     206.155    -772.444
  O     -752.082     205.534    -772.942
  O     -751.294     205.476    -770.487
  H     -752.271     204.601    -772.726
  H     -747.650     206.268    -772.141
  H     -748.638     206.294    -770.644
  H     -748.580     207.734    -771.701
  H     -755.691     203.760    -775.444
  H     -757.173     204.035    -774.559
  H     -755.936     202.996    -773.892

 3  4  5  6  7  8  9  10  11  12  22  25  29  30  31  32 0
 6-311+G(2d,p)
 ****
 33  36  37 0
 6-311+G(2d,p)
 ****
 1  2  13  14  15  16  17  18  19  20  21  23  24  26 0
 3-21G
 ****
 27  28  34  35  38  39  40  41  42  43  44  45  46  47  48 0
 3-21G
 ****


