%nproc=1
%NoSave
%Mem=1900MB
#P OB98/GEN NMR

erre ene a

0 1
  C      478.069     336.900     566.273
  O      479.242     336.592     567.029
  P      480.673     336.821     566.347
  C      481.335     339.218     567.057
  O      481.528     337.821     567.269
  C      482.579     340.009     567.487
  O      482.502     341.346     566.924
  C      482.730     340.203     568.999
  O      483.431     339.209     569.744
  C      483.581     341.474     569.055
  O      484.971     341.130     568.897
  C      483.106     342.276     567.848
  N      482.559     347.241     568.961
  C      483.648     346.500     568.648
  N      483.703     345.178     568.371
  C      482.485     344.632     568.416
  C      481.286     345.260     568.719
  C      481.352     346.632     569.008
  N      480.252     347.388     569.337
  N      480.238     344.360     568.681
  C      480.796     343.205     568.377
  N      482.148     343.316     568.194
  O      480.659     337.148     564.891
  O      481.405     335.416     566.607
  H      485.225     340.626     569.694
  H      481.950     335.196     565.822
  H      484.596     347.035     568.625
  H      480.264     342.270     568.282
  H      483.933     342.769     567.326
  H      483.496     341.991     570.017
  H      481.751     340.392     569.472
  H      483.472     339.517     567.087
  H      480.462     339.552     567.629
  H      480.390     348.358     569.575
  H      479.348     346.938     569.432
  H      481.094     339.359     565.999
  P      482.654     338.138     570.649
  C      482.732     335.972     569.202
  O      483.273     336.714     570.269
  O      481.168     338.218     570.577
  O      483.257     338.417     572.108
  H      484.188     338.171     572.206
  H      483.420     335.147     568.966
  H      482.613     336.594     568.315
  H      481.766     335.547     569.494
  H      477.200     336.695     566.863
  H      478.048     336.301     565.387
  H      478.080     337.935     566.003

 3  4  5  6  7  8  9  10  11  12  22  25  29  30  31  32 0
 6-311+G(2d,p)
 ****
 33  36  37 0
 6-311+G(2d,p)
 ****
 1  2  13  14  15  16  17  18  19  20  21  23  24  26 0
 3-21G
 ****
 27  28  34  35  38  39  40  41  42  43  44  45  46  47  48 0
 3-21G
 ****


