%nproc=1
%NoSave
%Mem=1900MB
#P OB98/GEN NMR

erre ene a

0 1
  C       62.851    -307.056     192.218
  O       63.359    -306.246     191.177
  H       63.180    -308.087     192.054
  H       61.757    -307.033     192.208
  H       63.220    -306.723     193.193
  P       63.255    -304.654     191.313
  C       65.467    -304.673     192.641
  O       64.748    -304.114     191.550
  C       66.975    -304.506     192.438
  O       67.376    -305.286     191.268
  C       67.419    -303.048     192.188
  O       68.735    -302.902     192.741
  C       67.458    -303.012     190.670
  O       68.140    -301.884     190.192
  C       68.081    -304.383     190.393
  N       67.970    -304.800     189.000
  C       69.140    -304.816     188.243
  O       70.250    -304.523     188.689
  N       68.992    -305.180     186.930
  C       67.818    -305.508     186.315
  O       67.748    -305.848     185.138
  C       66.613    -305.443     187.160
  C       66.743    -305.100     188.443
  O       62.241    -304.150     192.285
  O       62.934    -304.168     189.821
  H       61.974    -304.020     189.724
  H       69.083    -301.911     190.461
  H       69.829    -305.197     186.367
  H       65.665    -305.681     186.695
  H       65.878    -305.039     189.095
  H       69.135    -304.400     190.690
  H       66.443    -302.957     190.269
  H       66.746    -302.314     192.639
  H       67.501    -304.935     193.298
  H       65.216    -305.737     192.709
  H       65.158    -304.175     193.569
  P       69.039    -302.061     194.076
  C       68.006    -303.608     195.865
  O       69.200    -303.075     195.315
  O       68.056    -300.965     194.334
  O       70.509    -301.462     193.879
  H       70.554    -300.572     194.288
  H       68.248    -304.263     196.676
  H       67.479    -304.154     195.111
  H       67.391    -302.809     196.223

 6  7  8  9  10  11  12  13  14  15  16  27  31  32  33  34  35 0
 6-311+G(2d,p)
 ****
 36  37 0
 6-311+G(2d,p)
 ****
 1  2  3  4  5  17  18  19  20  21  22  23  24  25 0
 3-21G
 ****
 26  28  29  30  38  39  40  41  42  43  44  45 0
 3-21G
 ****


