%nproc=1
%NoSave
%Mem=1900MB
#P OB98/GEN NMR

erre ene a

0 1
  C       -5.591      52.780    -382.989
  O       -5.513      51.461    -383.488
  H       -5.201      52.794    -381.968
  H       -6.631      53.119    -382.973
  H       -4.991      53.451    -383.608
  P       -6.147      51.206    -384.943
  C       -6.150      49.043    -386.400
  O       -5.500      49.805    -385.393
  C       -5.203      47.978    -386.943
  O       -4.034      48.593    -387.537
  C       -4.657      47.019    -385.888
  O       -5.587      46.019    -385.504
  C       -3.482      46.434    -386.651
  O       -3.963      45.496    -387.635
  C       -2.907      47.700    -387.321
  N       -1.879      48.360    -386.509
  C       -0.586      48.407    -387.051
  O       -0.348      47.913    -388.149
  N        0.417      48.985    -386.310
  C        0.154      49.494    -385.144
  N        1.190      50.050    -384.459
  C       -1.191      49.474    -384.544
  C       -2.149      48.900    -385.270
  O       -5.380      52.261    -385.871
  O       -7.634      51.270    -385.031
  H       -4.574      44.896    -387.170
  H       -5.590      52.090    -386.822
  H       -1.358      49.898    -383.563
  H       -3.165      48.853    -384.894
  H       -2.479      47.467    -388.303
  H       -2.778      45.894    -386.016
  H       -4.277      47.556    -385.013
  H       -5.728      47.439    -387.740
  H        2.111      49.992    -384.872
  H       -6.453      49.723    -387.205
  H        1.119      50.331    -383.491
  H       -7.041      48.557    -385.989
  P       -5.422      45.385    -384.037
  C       -7.045      44.245    -382.350
  O       -6.801      44.647    -383.693
  O       -5.439      46.666    -383.083
  O       -4.189      44.557    -383.845
  H       -4.856      46.534    -382.310
  H       -8.002      43.770    -382.288
  H       -7.031      45.104    -381.712
  H       -6.285      43.558    -382.040

 6  7  8  9  10  11  12  13  14  15  16  26  30  31  32  33  35 0
 6-311+G(2d,p)
 ****
 37  38 0
 6-311+G(2d,p)
 ****
 1  2  3  4  5  17  18  19  20  21  22  23  24  25 0
 3-21G
 ****
 27  28  29  34  36  39  40  41  42  43  44  45  46 0
 3-21G
 ****


