%nproc=1
%NoSave
%Mem=1900MB
#P OB98/GEN NMR

erre ene a

0 1
  C      -51.953    -726.101    -116.265
  O      -50.945    -726.793    -116.972
  H      -52.739    -726.808    -115.994
  H      -52.388    -725.322    -116.894
  H      -51.546    -725.656    -115.352
  P      -49.675    -725.940    -117.450
  C      -50.441    -724.818    -119.671
  O      -50.289    -724.694    -118.266
  C      -50.077    -723.499    -120.370
  O      -48.676    -723.208    -120.132
  C      -50.295    -723.532    -121.880
  O      -50.903    -722.304    -122.297
  C      -48.906    -723.668    -122.463
  O      -48.810    -723.140    -123.785
  C      -48.048    -722.962    -121.400
  N      -46.664    -723.431    -121.413
  C      -45.844    -722.967    -122.453
  O      -46.300    -722.211    -123.304
  N      -44.553    -723.412    -122.525
  C      -44.127    -724.294    -121.670
  N      -42.842    -724.714    -121.807
  C      -44.968    -724.853    -120.593
  C      -46.212    -724.369    -120.522
  O      -49.042    -726.858    -118.598
  O      -48.710    -725.568    -116.375
  H      -48.886    -722.157    -123.727
  H      -48.130    -726.564    -118.837
  H      -44.574    -725.599    -119.919
  H      -46.901    -724.727    -119.757
  H      -48.049    -721.872    -121.572
  H      -48.630    -724.733    -122.510
  H      -50.930    -724.360    -122.203
  H      -50.647    -722.693    -119.900
  H      -42.300    -724.323    -122.566
  H      -51.484    -725.074    -119.895
  H      -42.415    -725.421    -121.227
  H      -49.790    -725.616    -120.037
  P      -52.508    -722.299    -122.382
  C      -53.082    -722.646    -124.885
  O      -52.932    -723.245    -123.609
  O      -52.856    -720.829    -122.884
  O      -53.165    -722.632    -121.082
  H      -53.122    -720.265    -122.142
  H      -53.364    -723.392    -125.598
  H      -52.155    -722.202    -125.182
  H      -53.840    -721.892    -124.838

 6  7  8  9  10  11  12  13  14  15  16  26  30  31  32  33  35 0
 6-311+G(2d,p)
 ****
 37  38 0
 6-311+G(2d,p)
 ****
 1  2  3  4  5  17  18  19  20  21  22  23  24  25 0
 3-21G
 ****
 27  28  29  34  36  39  40  41  42  43  44  45  46 0
 3-21G
 ****


