%nproc=1
%NoSave
%Mem=1900MB
#P OB98/GEN NMR

erre ene a

0 1
  C      458.130      -1.582     170.783
  O      458.886      -2.644     171.328
  P      460.442      -2.797     170.970
  C      460.110      -4.993     169.677
  O      460.567      -3.641     169.615
  C      460.866      -5.859     168.673
  O      460.207      -5.842     167.387
  C      462.289      -5.396     168.394
  O      463.160      -5.673     169.476
  C      462.597      -6.157     167.109
  O      462.968      -7.509     167.393
  C      461.228      -6.115     166.391
  N      461.196      -5.132     165.318
  C      461.125      -5.646     164.020
  O      461.173      -6.860     163.825
  N      461.006      -4.763     162.972
  C      461.081      -3.485     163.193
  N      460.900      -2.662     162.125
  C      461.319      -2.916     164.530
  C      461.343      -3.783     165.542
  O      461.309      -3.268     172.089
  O      460.874      -1.321     170.504
  H      461.684      -1.065     170.983
  H      463.134      -7.939     166.532
  H      461.442      -1.844     164.652
  H      461.485      -3.448     166.565
  H      460.990      -7.099     165.980
  H      463.419      -5.699     166.545
  H      462.292      -4.317     168.192
  H      460.864      -6.891     169.051
  H      460.718      -3.092     161.226
  H      459.038      -5.011     169.452
  H      460.614      -1.685     162.228
  H      460.252      -5.374     170.694
  P      464.223      -4.538     169.859
  C      466.211      -5.656     168.636
  O      465.353      -4.534     168.726
  O      464.969      -5.145     171.141
  O      463.626      -3.202     170.171
  H      465.183      -4.437     171.767
  H      466.665      -5.666     167.641
  H      465.665      -6.596     168.784
  H      467.001      -5.566     169.383
  H      457.121      -1.646     171.134
  H      458.141      -1.648     169.715
  H      458.555      -0.649     171.088

 3  4  5  6  7  8  9  10  11  12  13  24  27  28  29  30  32 0
 6-311+G(2d,p)
 ****
 34  35 0
 6-311+G(2d,p)
 ****
 1  2  14  15  16  17  18  19  20  21  22  23  25  26 0
 3-21G
 ****
 31  33  36  37  38  39  40  41  42  43  44  45  46 0
 3-21G
 ****


