%nproc=1
%NoSave
%Mem=1900MB
#P OB98/GEN NMR

erre ene a

0 1
  C       56.688    -694.904    1173.454
  O       57.380    -695.370    1174.597
  H       56.843    -693.821    1173.369
  H       55.614    -695.094    1173.560
  H       57.064    -695.388    1172.547
  P       57.421    -696.960    1174.812
  C       59.758    -697.125    1173.613
  O       58.405    -697.571    1173.693
  C       60.644    -698.253    1173.084
  O       60.739    -699.336    1174.029
  C       60.117    -698.910    1171.824
  O       60.221    -698.083    1170.686
  C       60.995    -700.149    1171.767
  O       62.293    -699.844    1171.251
  C       61.081    -700.522    1173.277
  N       60.229    -701.654    1173.611
  C       60.545    -702.864    1172.978
  O       61.486    -702.927    1172.192
  N       59.751    -703.956    1173.221
  C       58.759    -703.861    1174.049
  N       58.003    -704.981    1174.244
  C       58.409    -702.616    1174.765
  C       59.186    -701.563    1174.502
  O       55.975    -697.421    1174.303
  O       57.759    -697.405    1176.195
  H       62.845    -700.627    1171.397
  H       55.764    -697.112    1173.408
  H       57.587    -702.595    1175.465
  H       58.993    -700.608    1174.978
  H       62.111    -700.783    1173.554
  H       60.575    -700.931    1171.132
  H       59.071    -699.232    1171.964
  H       61.654    -697.837    1172.937
  H       58.252    -705.812    1173.725
  H       60.111    -696.771    1174.587
  H       57.194    -705.024    1174.847
  H       59.780    -696.264    1172.928
  P       59.259    -698.315    1169.422
  C       57.461    -696.791    1170.450
  O       57.759    -698.088    1169.941
  O       59.481    -699.584    1168.673
  O       59.505    -696.999    1168.543
  H       59.293    -696.151    1168.983
  H       56.439    -696.757    1170.764
  H       57.623    -696.061    1169.684
  H       58.098    -696.580    1171.284

 6  7  8  9  10  11  12  13  14  15  16  26  30  31  32  33  35 0
 6-311+G(2d,p)
 ****
 37  38 0
 6-311+G(2d,p)
 ****
 1  2  3  4  5  17  18  19  20  21  22  23  24  25 0
 3-21G
 ****
 27  28  29  34  36  39  40  41  42  43  44  45  46 0
 3-21G
 ****


