%nproc=1
%NoSave
%Mem=1900MB
#P OB98/GEN NMR

erre ene a

0 1
  C      383.282    -260.885    -755.007
  O      383.785    -261.838    -754.092
  H      383.473    -259.888    -754.608
  H      382.203    -261.017    -755.119
  H      383.767    -260.975    -755.980
  P      383.962    -263.350    -754.578
  C      381.625    -264.345    -754.083
  O      382.525    -263.862    -755.077
  C      380.203    -264.469    -754.638
  O      380.168    -265.503    -755.652
  C      379.237    -264.893    -753.531
  O      377.911    -264.418    -753.762
  C      379.243    -266.412    -753.634
  O      378.085    -267.018    -753.066
  C      379.368    -266.598    -755.148
  N      378.873    -270.924    -757.805
  C      377.948    -269.923    -757.582
  N      376.723    -270.110    -758.119
  N      378.198    -268.843    -756.877
  C      379.440    -268.826    -756.338
  C      380.434    -269.773    -756.466
  C      380.166    -270.938    -757.277
  O      380.944    -271.858    -757.494
  N      381.562    -269.407    -755.761
  C      381.241    -268.264    -755.201
  N      379.969    -267.857    -755.538
  O      384.167    -264.171    -753.212
  O      385.087    -263.605    -755.536
  H      377.315    -266.701    -753.569
  H      384.653    -264.991    -753.376
  H      378.636    -271.721    -758.358
  H      381.891    -267.680    -754.550
  H      378.381    -266.541    -755.623
  H      380.115    -266.786    -753.081
  H      376.435    -270.999    -758.509
  H      379.565    -264.555    -752.550
  H      375.956    -269.552    -757.729
  H      379.903    -263.537    -755.132
  H      381.645    -263.627    -753.250
  H      381.974    -265.305    -753.694
  P      377.534    -262.962    -753.190
  C      376.944    -263.797    -750.763
  O      377.771    -263.000    -751.602
  O      375.947    -262.902    -753.352
  O      378.224    -261.845    -753.892
  H      375.706    -262.319    -754.092
  H      377.258    -263.689    -749.746
  H      377.025    -264.824    -751.054
  H      375.927    -263.478    -750.858

 6  7  8  9  10  11  12  13  14  15  26  29  33  34 0
 6-311+G(2d,p)
 ****
 36  38  39  40  41 0
 6-311+G(2d,p)
 ****
 1  2  3  4  5  16  17  18  19  20  21  22  23  24  25 0
 3-21G
 ****
 27  28  30  31  32  35  37  42  43  44  45  46  47 0
 3-21G
 ****
 48  49 0
 3-21G
 ****


