%nproc=1
%NoSave
%Mem=1900MB
#P OB98/GEN NMR

erre ene a

0 1
  C      312.196    -554.486     111.297
  O      311.065    -554.182     110.487
  P      311.233    -553.114     109.305
  C      312.493    -554.808     107.706
  O      311.461    -553.871     107.917
  C      312.094    -555.751     106.559
  O      311.013    -556.612     106.971
  C      311.628    -555.014     105.307
  O      312.707    -554.657     104.462
  C      310.679    -556.019     104.686
  O      311.419    -557.053     104.008
  C      309.981    -556.591     105.945
  N      308.799    -555.873     106.474
  C      307.520    -556.312     106.144
  O      307.282    -557.280     105.420
  N      306.480    -555.601     106.690
  C      306.583    -554.633     107.643
  O      305.616    -554.070     108.142
  C      307.949    -554.313     108.068
  C      308.975    -554.926     107.468
  O      312.651    -552.437     109.607
  O      310.135    -552.101     109.230
  H      311.573    -556.745     103.098
  H      312.540    -551.493     109.819
  H      305.549    -555.859     106.404
  H      308.076    -553.581     108.856
  H      309.992    -554.691     107.778
  H      309.666    -557.632     105.775
  H      310.044    -555.558     103.932
  H      311.040    -554.130     105.585
  H      312.957    -556.385     106.314
  H      312.688    -555.386     108.611
  H      313.420    -554.280     107.459
  P      312.740    -553.215     103.770
  C      314.700    -551.969     104.854
  O      314.281    -552.772     103.766
  O      311.775    -552.211     104.307
  O      312.471    -553.534     102.222
  H      311.518    -553.421     101.998
  H      315.784    -551.870     104.818
  H      314.412    -552.428     105.804
  H      314.249    -550.974     104.776
  H      311.922    -555.211     112.035
  H      312.537    -553.595     111.782
  H      312.979    -554.880     110.683

 3  4  5  6  7  8  9  10  11  12  13  23  28  29  30  31  32 0
 6-311+G(2d,p)
 ****
 33  34 0
 6-311+G(2d,p)
 ****
 1  2  14  15  16  17  18  19  20  21  22  24  25  26  27 0
 3-21G
 ****
 35  36  37  38  39  40  41  42  43  44  45 0
 3-21G
 ****


