%nproc=1
%NoSave
%Mem=1900MB
#P OB98/GEN NMR

erre ene a

0 1
  C     -897.280    -596.785    1770.136
  O     -897.130    -596.608    1768.743
  H     -896.530    -597.494    1770.494
  H     -898.270    -597.200    1770.347
  H     -897.170    -595.833    1770.667
  P     -898.090    -595.536    1768.034
  C     -896.530    -593.799    1766.912
  O     -897.300    -594.140    1768.056
  C     -895.060    -593.610    1767.268
  O     -894.520    -594.892    1767.707
  C     -894.170    -593.100    1766.124
  O     -893.180    -592.230    1766.687
  C     -893.500    -594.367    1765.633
  O     -892.290    -594.103    1764.930
  C     -893.290    -595.105    1766.951
  N     -889.640    -598.559    1767.051
  C     -889.610    -597.214    1767.351
  N     -888.410    -596.707    1767.723
  N     -890.650    -596.423    1767.281
  C     -891.790    -597.077    1766.913
  C     -891.960    -598.398    1766.601
  C     -890.770    -599.256    1766.634
  O     -890.740    -600.452    1766.384
  N     -893.240    -598.668    1766.246
  C     -893.880    -597.510    1766.361
  N     -893.020    -596.506    1766.763
  O     -899.250    -595.339    1769.116
  O     -898.630    -595.947    1766.707
  H     -891.900    -594.963    1764.653
  H     -900.000    -595.932    1768.931
  H     -888.810    -599.121    1767.116
  H     -894.910    -597.334    1766.165
  H     -892.460    -594.687    1767.539
  H     -894.170    -594.922    1764.970
  H     -887.600    -597.244    1767.850
  H     -894.720    -592.572    1765.337
  H     -888.390    -595.728    1767.993
  H     -895.010    -592.927    1768.147
  H     -896.920    -592.856    1766.490
  H     -896.640    -594.589    1766.145
  P     -893.450    -590.656    1766.662
  C     -893.240    -590.213    1769.227
  O     -894.070    -590.228    1768.071
  O     -894.690    -590.527    1765.672
  O     -892.270    -589.839    1766.212
  H     -894.660    -589.650    1765.213
  H     -893.815    -589.905    1770.075
  H     -892.431    -589.529    1769.077
  H     -892.850    -591.194    1769.399

 6  7  8  9  10  11  12  13  14  15  26  29  33  34 0
 6-311+G(2d,p)
 ****
 36  38  39  40  41 0
 6-311+G(2d,p)
 ****
 1  2  3  4  5  16  17  18  19  20  21  22  23  24  25 0
 3-21G
 ****
 27  28  30  31  32  35  37  42  43  44  45  46  47 0
 3-21G
 ****
 48  49 0
 3-21G
 ****


