%nproc=1
%NoSave
%Mem=1900MB
#P OB98/GEN NMR

erre ene a

0 1
  C      219.525    1083.606     256.362
  O      220.518    1083.841     255.355
  P      220.069    1084.070     253.841
  C      221.368    1081.951     253.145
  O      221.096    1083.310     252.864
  C      222.858    1081.625     252.913
  O      223.217    1081.878     251.531
  C      223.787    1082.473     253.794
  O      224.740    1081.698     254.521
  C      224.361    1083.495     252.834
  O      225.609    1084.030     253.259
  C      224.363    1082.739     251.505
  N      224.345    1083.643     250.361
  C      224.521    1083.070     249.108
  O      224.768    1081.858     248.944
  N      224.470    1083.924     248.035
  C      224.352    1085.278     248.099
  O      224.358    1086.014     247.116
  C      224.221    1085.851     249.451
  C      224.232    1085.016     250.504
  O      219.754    1085.477     253.465
  O      218.750    1083.140     253.717
  H      225.483    1084.440     254.153
  H      218.103    1083.623     253.165
  H      224.579    1083.529     247.104
  H      224.152    1086.917     249.552
  H      224.156    1085.400     251.518
  H      225.259    1082.102     251.404
  H      223.659    1084.335     252.760
  H      223.225    1083.001     254.593
  H      222.995    1080.563     253.129
  H      220.763    1081.321     252.483
  H      221.040    1081.722     254.164
  P      224.635    1081.327     256.073
  C      225.967    1083.460     256.725
  O      225.828    1082.049     256.851
  O      224.470    1079.870     256.384
  O      223.335    1082.134     256.564
  H      222.806    1081.585     257.177
  H      226.982    1083.721     256.982
  H      225.291    1083.948     257.416
  H      225.767    1083.777     255.701
  H      220.003    1083.475     257.310
  H      218.971    1082.724     256.117
  H      218.861    1084.443     256.410

 3  4  5  6  7  8  9  10  11  12  13  23  28  29  30  31  32 0
 6-311+G(2d,p)
 ****
 33  34 0
 6-311+G(2d,p)
 ****
 1  2  14  15  16  17  18  19  20  21  22  24  25  26  27 0
 3-21G
 ****
 35  36  37  38  39  40  41  42  43  44  45 0
 3-21G
 ****


