%nproc=1
%NoSave
%Mem=1900MB
#P OB98/GEN NMR

erre ene a

0 1
  C       -6.593      -4.319      24.232
  O       -6.897      -3.086      24.858
  P       -6.874      -1.751      23.971
  C       -8.487      -0.845      22.106
  O       -7.966      -1.954      22.813
  C       -8.528      -1.144      20.604
  O       -7.168      -1.163      20.090
  C       -9.173      -2.488      20.241
  O       -9.865      -2.304      19.000
  C       -7.972      -3.398      20.053
  O       -8.265      -4.533      19.255
  C       -6.972      -2.423      19.422
  N       -5.581      -2.858      19.543
  C       -5.218      -4.057      18.937
  O       -6.002      -4.779      18.325
  N       -3.905      -4.422      19.082
  C       -2.960      -3.761      19.811
  O       -1.803      -4.144      19.921
  C       -3.413      -2.528      20.469
  C       -4.676      -2.136      20.299
  O       -5.473      -1.904      23.217
  O       -7.030      -0.500      24.765
  H       -5.260      -2.826      22.994
  H       -7.423      -4.961      19.016
  H       -3.611      -5.269      18.619
  H       -2.696      -1.982      21.069
  H       -5.034      -1.231      20.775
  H       -7.216      -2.268      18.365
  H       -7.626      -3.750      21.031
  H       -9.870      -2.839      21.007
  H       -9.052      -0.321      20.104
  H       -7.852       0.027      22.277
  H       -9.488      -0.613      22.484
  P      -11.060      -3.321      18.639
  C      -13.340      -3.944      19.761
  O      -12.092      -3.298      19.862
  O      -10.305      -4.724      18.836
  O      -11.633      -3.159      17.271
  H       -9.814      -4.774      19.671
  H      -13.736      -4.104      20.767
  H      -13.250      -4.913      19.264
  H      -14.037      -3.311      19.205
  H       -6.651      -5.108      24.952
  H       -5.604      -4.278      23.826
  H       -7.295      -4.502      23.445

 3  4  5  6  7  8  9  10  11  12  13  24  28  29  30  31  32 0
 6-311+G(2d,p)
 ****
 33  34 0
 6-311+G(2d,p)
 ****
 1  2  14  15  16  17  18  19  20  21  22  23  25  26  27 0
 3-21G
 ****
 35  36  37  38  39  40  41  42  43  44  45 0
 3-21G
 ****


