%nproc=1
%NoSave
%Mem=1900MB
#P OB98/GEN NMR

erre ene a

0 1
  C     -293.033      50.911      43.385
  O     -291.853      50.813      44.166
  P     -291.149      49.374      44.274
  C     -291.841      47.046      45.197
  O     -292.123      48.437      45.140
  C     -293.039      46.269      45.747
  O     -294.110      46.296      44.764
  C     -292.750      44.793      46.070
  O     -293.541      44.456      47.218
  C     -293.260      44.091      44.821
  O     -293.473      42.700      44.990
  C     -294.503      44.924      44.530
  N     -298.603      43.860      41.665
  C     -298.455      44.026      42.998
  N     -297.332      44.314      43.689
  C     -296.285      44.448      42.858
  C     -296.278      44.289      41.481
  C     -297.507      43.981      40.878
  N     -297.652      43.803      39.516
  N     -295.008      44.474      40.971
  C     -294.259      44.739      42.022
  N     -294.989      44.754      43.181
  O     -289.923      49.644      45.264
  O     -290.700      48.791      42.968
  H     -293.991      42.347      44.235
  H     -289.129      49.147      44.988
  H     -299.357      43.909      43.591
  H     -293.190      44.910      42.002
  H     -295.327      44.688      45.216
  H     -292.518      44.209      44.021
  H     -291.694      44.595      46.292
  H     -293.404      46.786      46.645
  H     -290.988      46.875      45.860
  H     -298.523      43.391      39.208
  H     -296.806      43.692      38.972
  H     -291.568      46.690      44.197
  P     -292.928      43.460      48.317
  C     -292.711      40.904      48.460
  O     -293.126      42.003      47.669
  O     -294.088      43.484      49.422
  O     -291.572      43.810      48.826
  H     -294.961      43.311      49.026
  H     -292.991      39.981      47.946
  H     -293.207      40.933      49.436
  H     -291.627      40.922      48.585
  H     -293.390      51.920      43.403
  H     -293.782      50.261      43.787
  H     -292.818      50.627      42.376

 3  4  5  6  7  8  9  10  11  12  22  25  29  30  31  32 0
 6-311+G(2d,p)
 ****
 33  36  37 0
 6-311+G(2d,p)
 ****
 1  2  13  14  15  16  17  18  19  20  21  23  24  26 0
 3-21G
 ****
 27  28  34  35  38  39  40  41  42  43  44  45  46  47  48 0
 3-21G
 ****


