%nproc=1
%NoSave
%Mem=1900MB
#P OB98/GEN NMR

erre ene a

0 1
  C     -225.036    -136.969    -322.038
  O     -225.680    -138.180    -322.390
  H     -224.081    -136.917    -322.564
  H     -224.851    -136.938    -320.961
  H     -225.656    -136.119    -322.338
  P     -227.094    -138.473    -321.692
  C     -226.591    -140.976    -322.069
  O     -227.527    -139.915    -322.261
  C     -226.563    -141.884    -323.305
  O     -225.681    -141.291    -324.293
  C     -226.053    -143.294    -323.010
  O     -226.795    -144.238    -323.788
  C     -224.611    -143.259    -323.488
  O     -224.126    -144.555    -323.848
  C     -224.695    -142.280    -324.661
  N     -221.298    -141.122    -328.285
  C     -222.538    -141.645    -328.347
  N     -223.389    -141.910    -327.323
  C     -222.850    -141.520    -326.152
  C     -221.599    -140.980    -325.935
  C     -220.789    -140.783    -327.076
  N     -219.516    -140.271    -327.021
  N     -221.390    -140.758    -324.584
  C     -222.511    -141.151    -324.004
  N     -223.414    -141.641    -324.908
  O     -228.118    -137.399    -321.827
  O     -226.652    -138.812    -320.191
  H     -223.156    -144.488    -323.970
  H     -225.873    -139.405    -320.175
  H     -222.901    -141.897    -329.342
  H     -222.709    -141.116    -322.936
  H     -225.010    -142.754    -325.597
  H     -223.969    -142.865    -322.695
  H     -226.120    -143.551    -321.952
  H     -227.564    -141.909    -323.753
  H     -226.864    -141.571    -321.192
  H     -219.014    -140.153    -327.887
  H     -219.129    -139.991    -326.129
  H     -225.609    -140.533    -321.902
  P     -227.025    -145.706    -323.185
  C     -226.991    -146.724    -325.563
  O     -227.701    -146.628    -324.328
  O     -227.682    -145.769    -321.848
  O     -225.534    -146.290    -323.120
  H     -225.445    -146.840    -322.314
  H     -227.531    -147.356    -326.237
  H     -226.021    -147.139    -325.385
  H     -226.889    -145.749    -325.993

 6  7  8  9  10  11  12  13  14  15  25  28  32  33  34  35 0
 6-311+G(2d,p)
 ****
 36  39  40 0
 6-311+G(2d,p)
 ****
 1  2  3  4  5  16  17  18  19  20  21  22  23  24 0
 3-21G
 ****
 26  27  29  30  31  37  38  41  42  43  44  45  46  47 0
 3-21G
 ****
 48 0
 3-21G
 ****


