%nproc=1
%NoSave
%Mem=1900MB
#P OB98/GEN NMR

erre ene a

0 1
  C      -32.481     216.574      65.863
  O      -32.784     215.848      64.685
  P      -31.830     216.029      63.407
  C      -33.117     218.151      62.543
  O      -31.905     217.579      62.997
  C      -32.865     219.030      61.314
  O      -34.129     219.593      60.871
  C      -31.900     220.198      61.555
  O      -31.150     220.387      60.348
  C      -32.840     221.369      61.787
  O      -32.222     222.624      61.549
  C      -33.971     221.026      60.808
  N      -35.234     221.696      61.117
  C      -35.877     222.379      60.089
  O      -35.433     222.469      58.945
  N      -37.054     222.994      60.431
  C      -37.603     223.048      61.678
  O      -38.652     223.631      61.928
  C      -36.857     222.350      62.732
  C      -35.731     221.711      62.408
  O      -32.682     215.285      62.278
  O      -30.451     215.501      63.608
  H      -33.642     215.405      62.385
  H      -32.867     223.323      61.765
  H      -37.556     223.466      59.690
  H      -37.251     222.383      63.741
  H      -35.160     221.187      63.168
  H      -33.667     221.271      59.784
  H      -33.191     221.353      62.824
  H      -31.220     220.015      62.393
  H      -32.493     218.388      60.503
  H      -33.547     218.765      63.337
  H      -33.831     217.350      62.312
  P      -29.772     221.215      60.434
  C      -30.962     223.515      60.044
  O      -30.141     222.713      60.860
  O      -29.434     221.364      58.869
  O      -28.679     220.545      61.201
  H      -30.193     221.670      58.347
  H      -31.360     224.339      60.643
  H      -31.800     222.944      59.637
  H      -30.370     223.931      59.224
  H      -33.204     216.347      66.618
  H      -32.504     217.623      65.652
  H      -31.506     216.301      66.209

 3  4  5  6  7  8  9  10  11  12  13  24  28  29  30  31  32 0
 6-311+G(2d,p)
 ****
 33  34 0
 6-311+G(2d,p)
 ****
 1  2  14  15  16  17  18  19  20  21  22  23  25  26  27 0
 3-21G
 ****
 35  36  37  38  39  40  41  42  43  44  45 0
 3-21G
 ****


