%nproc=1
%NoSave
%Mem=1900MB
#P OB98/GEN NMR

erre ene a

0 1
  C     -273.425    -687.006      33.116
  O     -273.139    -686.154      34.218
  P     -272.585    -684.675      33.975
  C     -270.537    -685.411      32.603
  O     -270.994    -684.761      33.782
  C     -269.128    -684.942      32.243
  O     -269.130    -683.553      31.864
  C     -268.136    -685.041      33.388
  O     -267.759    -686.381      33.660
  C     -267.015    -684.147      32.877
  O     -266.182    -684.856      31.948
  C     -267.807    -683.036      32.156
  N     -267.866    -681.801      32.927
  C     -266.811    -680.910      32.741
  O     -265.857    -681.213      32.032
  N     -266.859    -679.691      33.383
  C     -267.817    -679.449      34.227
  N     -267.848    -678.212      34.786
  C     -268.864    -680.437      34.567
  C     -268.843    -681.571      33.866
  O     -273.042    -683.653      34.956
  O     -273.093    -684.307      32.494
  H     -273.533    -683.436      32.520
  H     -265.552    -684.203      31.578
  H     -269.592    -680.212      35.332
  H     -269.582    -682.344      34.041
  H     -267.351    -682.818      31.181
  H     -266.368    -683.788      33.686
  H     -268.573    -684.593      34.291
  H     -268.784    -685.533      31.383
  H     -267.131    -677.559      34.509
  H     -271.223    -685.171      31.783
  H     -268.700    -677.821      35.184
  H     -270.556    -686.495      32.757
  P     -268.247    -687.003      35.056
  C     -266.181    -685.995      36.254
  O     -266.958    -687.146      35.995
  O     -268.625    -688.512      34.680
  O     -269.408    -686.296      35.684
  H     -269.398    -688.798      35.199
  H     -265.582    -686.179      37.145
  H     -266.809    -685.118      36.422
  H     -265.507    -685.817      35.406
  H     -273.783    -687.948      33.477
  H     -272.534    -687.159      32.543
  H     -274.173    -686.553      32.499

 3  4  5  6  7  8  9  10  11  12  13  24  27  28  29  30  32 0
 6-311+G(2d,p)
 ****
 34  35 0
 6-311+G(2d,p)
 ****
 1  2  14  15  16  17  18  19  20  21  22  23  25  26 0
 3-21G
 ****
 31  33  36  37  38  39  40  41  42  43  44  45  46 0
 3-21G
 ****


