%nproc=1
%NoSave
%Mem=1900MB
#P OB98/GEN NMR

erre ene a

0 1
  C      -93.229    -512.729     -49.816
  O      -92.886    -511.472     -50.425
  P      -94.002    -510.685     -51.273
  C      -95.929    -508.986     -50.769
  O      -94.815    -509.720     -50.280
  C      -95.958    -507.591     -50.141
  O      -96.022    -507.686     -48.699
  C      -94.724    -506.746     -50.427
  O      -94.741    -506.211     -51.738
  C      -94.828    -505.684     -49.336
  O      -95.726    -504.632     -49.728
  C      -95.415    -506.489     -48.161
  N      -94.416    -506.812     -47.144
  C      -93.971    -505.754     -46.356
  O      -94.335    -504.592     -46.522
  N      -93.058    -506.073     -45.386
  C      -92.512    -507.308     -45.178
  O      -91.681    -507.528     -44.303
  C      -92.959    -508.368     -46.092
  C      -93.872    -508.074     -47.021
  O      -95.075    -511.839     -51.564
  O      -93.531    -510.067     -52.548
  H      -96.601    -505.044     -49.862
  H      -95.548    -511.642     -52.395
  H      -92.748    -505.329     -44.785
  H      -92.532    -509.356     -45.974
  H      -94.214    -508.848     -47.705
  H      -96.226    -505.926     -47.685
  H      -93.863    -505.218     -49.115
  H      -93.819    -507.343     -50.261
  H      -96.866    -507.077     -50.490
  H      -96.850    -509.515     -50.509
  H      -95.860    -508.916     -51.860
  P      -93.447    -506.494     -52.648
  C      -93.112    -508.178     -54.621
  O      -93.988    -507.341     -53.900
  O      -92.660    -507.551     -51.736
  O      -92.674    -505.257     -52.970
  H      -93.268    -508.127     -51.237
  H      -92.346    -508.616     -53.974
  H      -92.627    -507.599     -55.413
  H      -93.690    -508.988     -55.075
  H      -92.379    -513.116     -49.294
  H      -93.528    -513.423     -50.574
  H      -94.035    -512.584     -49.128

 3  4  5  6  7  8  9  10  11  12  13  23  28  29  30  31  32 0
 6-311+G(2d,p)
 ****
 33  34 0
 6-311+G(2d,p)
 ****
 1  2  14  15  16  17  18  19  20  21  22  24  25  26 0
 3-21G
 ****
 27  35  36  37  38  39  40  41  42  43  44  45 0
 3-21G
 ****


