%nproc=1
%NoSave
%Mem=1900MB
#P OB98/GEN NMR

erre ene a

0 1
  C      314.498     336.532     -75.477
  O      313.993     336.641     -74.162
  H      314.312     335.515     -75.844
  H      315.577     336.706     -75.475
  H      314.007     337.242     -76.150
  P      313.876     338.087     -73.494
  C      315.933     338.176     -71.925
  O      315.384     338.556     -73.181
  C      316.522     339.392     -71.216
  O      317.492     340.022     -72.106
  C      315.465     340.454     -70.846
  O      315.854     341.081     -69.620
  C      315.603     341.437     -71.999
  O      315.081     342.703     -71.682
  C      317.118     341.410     -72.221
  N      317.483     341.986     -73.508
  C      317.638     343.369     -73.555
  O      317.486     344.107     -72.587
  N      317.922     343.894     -74.789
  C      317.944     343.206     -75.968
  O      318.123     343.749     -77.054
  C      317.716     341.752     -75.863
  C      317.505     341.221     -74.659
  O      312.939     338.202     -72.330
  O      313.470     339.057     -74.701
  H      315.346     343.350     -72.360
  H      313.062     339.874     -74.358
  H      318.051     344.899     -74.841
  H      317.717     341.181     -76.780
  H      317.313     340.158     -74.549
  H      317.642     341.959     -71.419
  H      315.075     341.066     -72.880
  H      314.457     340.047     -70.757
  H      317.068     339.061     -70.325
  H      316.721     337.433     -72.113
  H      315.150     337.714     -71.310
  P      315.496     340.434     -68.183
  C      313.226     341.547     -67.723
  O      313.901     340.329     -67.996
  O      316.203     341.079     -67.040
  O      315.956     338.907     -68.323
  H      316.451     338.650     -67.520
  H      312.178     341.358     -67.619
  H      313.386     342.232     -68.529
  H      313.605     341.969     -66.816

 6  7  8  9  10  11  12  13  14  15  16  26  31  32  33  34  35 0
 6-311+G(2d,p)
 ****
 36  37 0
 6-311+G(2d,p)
 ****
 1  2  3  4  5  17  18  19  20  21  22  23  24  25 0
 3-21G
 ****
 27  28  29  30  38  39  40  41  42  43  44  45 0
 3-21G
 ****


