%nproc=1
%NoSave
%Mem=1900MB
#P OB98/GEN NMR

erre ene a

0 1
  C     -104.293     398.735     -50.630
  O     -105.001     399.915     -50.310
  H     -104.914     397.875     -50.370
  H     -103.363     398.679     -50.061
  H     -104.078     398.697     -51.703
  P     -104.281     401.328     -50.536
  C     -106.332     402.203     -51.840
  O     -105.445     402.415     -50.746
  C     -107.785     402.341     -51.377
  O     -108.159     401.103     -50.723
  C     -107.977     403.490     -50.373
  O     -109.011     404.396     -50.753
  C     -108.124     402.768     -49.038
  O     -108.860     403.477     -48.064
  C     -108.727     401.416     -49.438
  N     -108.463     400.345     -48.479
  C     -109.297     400.265     -47.369
  O     -110.247     401.010     -47.138
  N     -109.008     399.259     -46.482
  C     -107.996     398.355     -46.598
  O     -107.787     397.469     -45.774
  C     -107.132     398.504     -47.783
  C     -107.405     399.479     -48.658
  O     -103.212     401.354     -51.577
  O     -103.699     401.702     -49.091
  H     -109.725     403.715     -48.459
  H     -102.741     401.526     -49.070
  H     -109.609     399.184     -45.678
  H     -106.315     397.811     -47.897
  H     -106.792     399.615     -49.542
  H     -109.811     401.502     -49.552
  H     -107.119     402.605     -48.626
  H     -107.086     404.127     -50.338
  H     -108.427     402.457     -52.257
  H     -106.152     401.195     -52.231
  H     -106.123     402.932     -52.631
  P     -109.269     405.814     -50.071
  C     -108.957     407.253     -52.241
  O     -109.816     406.819     -51.192
  O     -108.181     406.313     -49.184
  O     -110.567     405.548     -49.144
  H     -110.477     406.126     -48.357
  H     -109.492     407.915     -52.889
  H     -108.618     406.405     -52.798
  H     -108.115     407.765     -51.824

 6  7  8  9  10  11  12  13  14  15  16  26  31  32  33  34  35 0
 6-311+G(2d,p)
 ****
 36  37 0
 6-311+G(2d,p)
 ****
 1  2  3  4  5  17  18  19  20  21  22  23  24  25 0
 3-21G
 ****
 27  28  29  30  38  39  40  41  42  43  44  45 0
 3-21G
 ****


