%nproc=1
%NoSave
%Mem=1900MB
#P OB98/GEN NMR

erre ene a

0 1
  C     -206.109     -86.706      67.232
  O     -205.339     -85.741      67.918
  H     -206.896     -86.194      66.673
  H     -206.578     -87.390      67.945
  H     -205.491     -87.270      66.528
  P     -203.994     -86.206      68.654
  C     -203.395     -87.633      70.718
  O     -204.436     -87.103      69.908
  C     -203.975     -88.610      71.738
  O     -204.802     -89.590      71.074
  C     -202.925     -89.406      72.503
  O     -202.308     -88.609      73.496
  C     -203.770     -90.554      73.033
  O     -204.504     -90.150      74.202
  C     -204.723     -90.811      71.842
  N     -204.306     -91.932      71.003
  C     -204.102     -93.148      71.647
  O     -204.224     -93.292      72.863
  N     -203.737     -94.198      70.843
  C     -203.479     -94.128      69.506
  O     -203.101     -95.089      68.840
  C     -203.675     -92.810      68.881
  C     -204.074     -91.790      69.646
  O     -203.018     -85.122      68.973
  O     -203.366     -87.283      67.646
  H     -203.842     -89.862      74.861
  H     -202.652     -86.871      67.125
  H     -203.575     -95.083      71.295
  H     -203.477     -92.717      67.822
  H     -204.221     -90.809      69.206
  H     -205.739     -91.016      72.205
  H     -203.172     -91.420      73.320
  H     -202.178     -89.815      71.809
  H     -204.614     -88.044      72.427
  H     -202.904     -86.804      71.244
  H     -202.664     -88.131      70.074
  P     -200.761     -88.796      73.853
  C     -199.360     -90.317      75.369
  O     -200.629     -90.119      74.758
  O     -200.084     -87.590      74.415
  O     -200.094     -89.242      72.467
  H     -199.580     -88.500      72.095
  H     -199.378     -91.219      75.945
  H     -199.140     -89.489      76.010
  H     -198.608     -90.392      74.612

 6  7  8  9  10  11  12  13  14  15  16  26  31  32  33  34  35 0
 6-311+G(2d,p)
 ****
 36  37 0
 6-311+G(2d,p)
 ****
 1  2  3  4  5  17  18  19  20  21  22  23  24  25 0
 3-21G
 ****
 27  28  29  30  38  39  40  41  42  43  44  45 0
 3-21G
 ****


