%nproc=1
%NoSave
%Mem=1900MB
#P OB98/GEN NMR

erre ene a

0 1
  C      695.950    -194.624      66.209
  O      694.754    -194.511      66.955
  H      696.787    -194.326      66.845
  H      695.917    -193.958      65.343
  H      696.108    -195.655      65.882
  P      693.391    -195.048      66.309
  C      692.998    -197.254      67.584
  O      693.440    -196.648      66.373
  C      691.526    -197.646      67.461
  O      691.307    -198.354      66.219
  C      691.047    -198.590      68.557
  O      690.851    -197.908      69.781
  C      689.789    -199.150      67.920
  O      688.682    -198.252      68.085
  C      690.195    -199.251      66.432
  N      690.536    -200.620      66.050
  C      689.488    -201.532      66.018
  O      688.322    -201.233      66.280
  N      689.830    -202.824      65.729
  C      691.103    -203.302      65.614
  O      691.377    -204.499      65.603
  C      692.167    -202.285      65.596
  C      691.841    -201.011      65.822
  O      693.038    -194.477      64.975
  O      692.284    -194.682      67.409
  H      691.798    -193.883      67.123
  H      687.896    -198.736      67.758
  H      689.076    -203.504      65.745
  H      693.187    -202.615      65.431
  H      692.612    -200.251      65.847
  H      689.378    -198.901      65.789
  H      689.509    -200.109      68.361
  H      691.774    -199.402      68.685
  H      690.923    -196.728      67.445
  H      693.115    -196.529      68.399
  H      693.619    -198.128      67.789
  P      690.850    -198.716      71.166
  C      693.309    -198.086      71.584
  O      692.360    -199.145      71.500
  O      689.848    -199.823      71.257
  O      690.555    -197.593      72.271
  H      689.823    -197.898      72.844
  H      694.274    -198.489      71.810
  H      693.017    -197.406      72.357
  H      693.349    -197.568      70.649

 6  7  8  9  10  11  12  13  14  15  16  27  31  32  33  34  35 0
 6-311+G(2d,p)
 ****
 36  37 0
 6-311+G(2d,p)
 ****
 1  2  3  4  5  17  18  19  20  21  22  23  24  25 0
 3-21G
 ****
 26  28  29  30  38  39  40  41  42  43  44  45 0
 3-21G
 ****


