%nproc=1
%NoSave
%Mem=1900MB
#P OB98/GEN NMR

erre ene a

0 1
  C     1295.168     623.112      52.489
  O     1295.876     624.318      52.277
  P     1296.478     624.652      50.830
  C     1294.382     625.912      50.025
  O     1295.266     624.814      49.803
  C     1294.494     626.919      48.886
  O     1294.150     626.303      47.620
  C     1293.530     628.085      49.028
  O     1293.948     629.012      50.014
  C     1293.566     628.661      47.577
  O     1294.734     629.459      47.386
  C     1293.649     627.353      46.761
  N     1292.356     626.999      46.155
  C     1292.062     627.665      44.937
  O     1292.795     628.532      44.499
  N     1290.906     627.302      44.298
  C     1290.080     626.459      44.842
  N     1288.989     626.107      44.128
  C     1290.295     625.885      46.174
  C     1291.468     626.166      46.752
  O     1297.578     623.746      50.378
  O     1297.003     626.167      50.987
  H     1297.941     626.196      50.661
  H     1294.645     630.221      47.998
  H     1289.557     625.231      46.625
  H     1291.741     625.758      47.725
  H     1294.404     627.474      45.963
  H     1292.692     629.275      47.369
  H     1292.527     627.741      49.240
  H     1295.509     627.273      48.826
  H     1288.881     626.496      43.192
  H     1294.661     626.405      50.964
  H     1288.471     625.232      44.298
  H     1293.349     625.531      50.107
  P     1293.027     630.323      50.203
  C     1291.427     629.167      51.884
  O     1291.559     629.834      50.646
  O     1292.826     630.840      48.720
  O     1293.624     631.359      51.086
  H     1292.821     631.836      48.723
  H     1290.361     629.231      52.187
  H     1292.026     629.637      52.667
  H     1291.703     628.106      51.782
  H     1294.844     623.063      53.508
  H     1295.808     622.281      52.278
  H     1294.316     623.080      51.842

 3  4  5  6  7  8  9  10  11  12  13  24  27  28  29  30  32 0
 6-311+G(2d,p)
 ****
 34  35 0
 6-311+G(2d,p)
 ****
 1  2  14  15  16  17  18  19  20  21  22  23  25  26 0
 3-21G
 ****
 31  33  36  37  38  39  40  41  42  43  44  45  46 0
 3-21G
 ****


