%nproc=1
%NoSave
%Mem=1900MB
#P OB98/GEN NMR

erre ene a

0 1
  C     -102.800    1115.822    -108.541
  O     -101.685    1115.742    -107.676
  H     -102.452    1115.737    -109.571
  H     -103.310    1116.782    -108.430
  H     -103.505    1115.000    -108.346
  P     -101.933    1115.743    -106.091
  C     -101.170    1113.327    -105.668
  O     -100.880    1114.702    -105.457
  C     -100.100    1112.450    -105.051
  O      -98.849    1112.697    -105.714
  C      -99.879    1112.711    -103.539
  O      -99.614    1111.466    -102.900
  C      -98.623    1113.570    -103.517
  O      -97.922    1113.453    -102.291
  C      -97.860    1113.055    -104.720
  N      -93.186    1114.970    -104.311
  C      -93.762    1113.905    -103.680
  N      -93.007    1113.245    -102.754
  N      -95.003    1113.495    -103.903
  C      -95.647    1114.238    -104.854
  C      -95.180    1115.320    -105.537
  C      -93.827    1115.760    -105.270
  O      -93.259    1116.729    -105.806
  N      -96.153    1115.806    -106.393
  C      -97.194    1115.009    -106.192
  N      -96.936    1114.051    -105.249
  O     -103.348    1115.538    -105.659
  O     -101.365    1117.165    -105.613
  H      -97.173    1114.084    -102.323
  H     -102.088    1117.799    -105.475
  H      -92.242    1115.258    -104.099
  H      -98.132    1115.098    -106.714
  H      -97.239    1112.154    -104.501
  H      -98.910    1114.625    -103.653
  H      -92.058    1113.501    -102.530
  H     -100.740    1113.199    -103.065
  H      -93.404    1112.454    -102.292
  H     -100.353    1111.392    -105.229
  H     -101.226    1113.146    -106.742
  H     -102.150    1113.085    -105.232
  P     -100.328    1111.122    -101.518
  C     -101.969    1109.277    -102.310
  O     -100.785    1109.590    -101.534
  O     -101.412    1112.092    -101.103
  O      -99.129    1111.113    -100.459
  H      -99.456    1111.391     -99.599
  H     -102.172    1108.229    -102.243
  H     -101.806    1109.544    -103.333
  H     -102.803    1109.827    -101.926

 6  7  8  9  10  11  12  13  14  15  26  29  33  34 0
 6-311+G(2d,p)
 ****
 36  38  39  40  41 0
 6-311+G(2d,p)
 ****
 1  2  3  4  5  16  17  18  19  20  21  22  23  24  25 0
 3-21G
 ****
 27  28  30  31  32  35  37  42  43  44  45  46  47 0
 3-21G
 ****
 48  49 0
 3-21G
 ****


