%nproc=1
%NoSave
%Mem=1900MB
#P OB98/GEN NMR

erre ene a

0 1
  C     -375.520    1148.741     638.721
  O     -376.182    1149.601     639.629
  H     -375.554    1149.188     637.726
  H     -376.026    1147.769     638.687
  H     -374.472    1148.603     639.006
  P     -376.118    1149.271     641.189
  C     -378.360    1150.315     641.947
  O     -376.937    1150.426     641.941
  C     -378.996    1151.578     642.545
  O     -378.439    1151.790     643.880
  C     -378.740    1152.859     641.739
  O     -379.871    1153.729     641.947
  C     -377.496    1153.396     642.434
  O     -377.204    1154.718     642.069
  C     -377.899    1153.133     643.895
  N     -376.831    1153.242     644.865
  C     -376.766    1154.396     645.645
  O     -377.568    1155.328     645.563
  N     -375.735    1154.466     646.540
  C     -374.786    1153.509     646.745
  O     -373.903    1153.607     647.583
  C     -374.892    1152.317     645.897
  C     -375.890    1152.231     645.012
  O     -374.760    1149.001     641.749
  O     -377.078    1147.993     641.345
  H     -376.543    1147.180     641.423
  H     -377.195    1154.785     641.084
  H     -375.679    1155.294     647.110
  H     -374.150    1151.538     646.018
  H     -375.998    1151.366     644.380
  H     -378.721    1153.800     644.182
  H     -376.628    1152.800     642.155
  H     -378.611    1152.680     640.669
  H     -380.069    1151.398     642.675
  H     -378.633    1149.439     642.545
  H     -378.708    1150.170     640.918
  P     -381.070    1153.885     640.885
  C     -381.556    1156.397     640.510
  O     -381.872    1155.225     641.246
  O     -381.931    1152.671     640.766
  O     -380.353    1154.216     639.494
  H     -380.932    1153.926     638.752
  H     -382.163    1157.208     640.854
  H     -381.744    1156.227     639.470
  H     -380.523    1156.639     640.651

 6  7  8  9  10  11  12  13  14  15  16  27  31  32  33  34  35 0
 6-311+G(2d,p)
 ****
 36  37 0
 6-311+G(2d,p)
 ****
 1  2  3  4  5  17  18  19  20  21  22  23  24  25 0
 3-21G
 ****
 26  28  29  30  38  39  40  41  42  43  44  45 0
 3-21G
 ****


