%nproc=1
%NoSave
%Mem=1900MB
#P OB98/GEN NMR

erre ene a

0 1
  C      417.129     409.753    -425.159
  O      416.913     408.857    -426.233
  H      417.548     410.694    -425.533
  H      416.174     409.961    -424.675
  H      417.808     409.307    -424.426
  P      418.201     408.411    -427.078
  C      418.739     406.758    -425.146
  O      419.222     407.774    -426.016
  C      419.832     405.720    -424.905
  O      420.190     405.084    -426.151
  C      421.129     406.301    -424.347
  O      421.068     406.504    -422.948
  C      422.103     405.186    -424.698
  O      421.947     404.095    -423.774
  C      421.615     404.775    -426.100
  N      426.163     405.838    -428.181
  C      425.816     405.128    -427.088
  N      424.578     404.897    -426.596
  C      423.649     405.485    -427.363
  C      423.848     406.242    -428.500
  C      425.179     406.409    -428.918
  N      425.541     407.145    -430.028
  N      422.646     406.712    -428.998
  C      421.733     406.215    -428.187
  N      422.291     405.472    -427.175
  O      418.899     409.801    -427.460
  O      417.931     407.560    -428.271
  H      422.367     404.375    -422.938
  H      419.492     409.677    -428.227
  H      426.643     404.692    -426.530
  H      420.666     406.360    -428.288
  H      421.725     403.700    -426.281
  H      423.144     405.503    -424.655
  H      421.421     407.212    -424.872
  H      419.428     404.950    -424.237
  H      417.873     406.271    -425.607
  H      426.521     407.354    -430.132
  H      424.830     407.695    -430.489
  H      418.429     407.210    -424.199
  P      421.813     407.795    -422.352
  C      420.254     409.859    -422.642
  O      421.280     409.039    -423.211
  O      423.318     407.605    -422.861
  O      421.725     407.934    -420.867
  H      423.944     408.059    -422.268
  H      420.003     410.643    -423.326
  H      420.605     410.285    -421.725
  H      419.387     409.263    -422.449

 6  7  8  9  10  11  12  13  14  15  25  28  32  33  34  35 0
 6-311+G(2d,p)
 ****
 36  39  40 0
 6-311+G(2d,p)
 ****
 1  2  3  4  5  16  17  18  19  20  21  22  23  24 0
 3-21G
 ****
 26  27  29  30  31  37  38  41  42  43  44  45  46  47 0
 3-21G
 ****
 48 0
 3-21G
 ****


