%nproc=1
%NoSave
%Mem=1900MB
#P OB98/GEN NMR

erre ene a

0 1
  C     -138.732      42.193     319.794
  O     -138.393      41.814     321.108
  P     -138.109      40.275     321.465
  C     -136.050      41.016     322.824
  O     -136.539      40.168     321.786
  C     -134.760      41.694     322.377
  O     -134.987      42.553     321.229
  C     -134.154      42.625     323.422
  O     -133.664      42.039     324.605
  C     -133.166      43.411     322.578
  O     -131.953      42.684     322.376
  C     -133.941      43.556     321.243
  N     -134.479      44.903     321.061
  C     -133.584      45.852     320.587
  O     -132.408      45.612     320.323
  N     -134.081      47.123     320.451
  C     -135.338      47.533     320.775
  O     -135.705      48.698     320.670
  C     -136.233      46.485     321.291
  C     -135.772      45.235     321.409
  O     -138.607      39.288     320.464
  O     -138.764      40.110     322.919
  H     -132.165      41.904     321.828
  H     -138.386      40.693     323.604
  H     -133.443      47.832     320.118
  H     -137.245      46.774     321.551
  H     -136.414      44.445     321.789
  H     -133.282      43.331     320.393
  H     -132.894      44.365     323.046
  H     -134.932      43.328     323.739
  H     -134.051      40.922     322.065
  H     -135.847      40.406     323.710
  H     -136.820      41.752     323.086
  P     -134.282      42.328     326.057
  C     -135.777      40.284     326.613
  O     -135.714      41.613     326.145
  O     -134.175      43.729     326.562
  O     -133.378      41.373     326.983
  H     -133.290      41.779     327.864
  H     -136.818      39.947     326.566
  H     -135.437      40.224     327.649
  H     -135.170      39.628     325.981
  H     -138.882      43.252     319.756
  H     -139.632      41.694     319.500
  H     -137.940      41.921     319.129

 3  4  5  6  7  8  9  10  11  12  13  23  28  29  30  31  32 0
 6-311+G(2d,p)
 ****
 33  34 0
 6-311+G(2d,p)
 ****
 1  2  14  15  16  17  18  19  20  21  22  24  25  26  27 0
 3-21G
 ****
 35  36  37  38  39  40  41  42  43  44  45 0
 3-21G
 ****


