%nproc=1
%NoSave
%Mem=1900MB
#P OB98/GEN NMR

erre ene a

0 1
  C     -235.480      57.102    -895.180
  O     -236.212      57.217    -896.410
  P     -235.541      57.915    -897.680
  C     -235.652      60.301    -896.660
  O     -234.823      59.277    -897.200
  C     -234.783      61.439    -896.120
  O     -234.259      62.270    -897.200
  C     -235.555      62.417    -895.230
  O     -235.986      61.925    -893.980
  C     -234.665      63.648    -895.240
  O     -233.617      63.551    -894.290
  C     -234.105      63.617    -896.680
  N     -234.738      64.585    -897.560
  C     -233.892      65.517    -898.150
  O     -232.679      65.564    -897.940
  N     -234.484      66.429    -898.990
  C     -235.826      66.520    -899.260
  O     -236.312      67.365    -900.000
  C     -236.683      65.518    -898.580
  C     -236.114      64.619    -897.790
  O     -236.398      58.049    -898.890
  O     -234.283      56.955    -897.980
  H     -233.109      64.378    -894.310
  H     -234.210      56.863    -898.950
  H     -233.882      67.110    -899.450
  H     -237.753      65.576    -898.770
  H     -236.715      63.879    -897.280
  H     -233.018      63.821    -896.670
  H     -235.234      64.549    -895.000
  H     -236.487      62.696    -895.770
  H     -233.928      61.022    -895.590
  H     -236.266      59.886    -895.860
  H     -236.337      60.652    -897.440
  P     -237.514      61.671    -893.600
  C     -237.948      63.849    -892.260
  O     -238.248      63.082    -893.410
  O     -237.831      60.595    -892.600
  O     -238.120      61.180    -895.030
  H     -238.833      60.546    -894.860
  H     -238.520      64.761    -892.280
  H     -236.887      64.107    -892.230
  H     -238.192      63.277    -891.340
  H     -236.087      56.611    -894.448
  H     -235.218      58.078    -894.828
  H     -234.590      56.532    -895.347

 3  4  5  6  7  8  9  10  11  12  13  23  28  29  30  31  32 0
 6-311+G(2d,p)
 ****
 33  34 0
 6-311+G(2d,p)
 ****
 1  2  14  15  16  17  18  19  20  21  22  24  25  26  27 0
 3-21G
 ****
 35  36  37  38  39  40  41  42  43  44  45 0
 3-21G
 ****


