%nproc=1
%NoSave
%Mem=1900MB
#P OB98/GEN NMR

erre ene a

0 1
  C     -137.843     270.409      89.232
  O     -136.765     269.913      88.475
  P     -136.382     268.366      88.386
  C     -138.155     267.693      86.587
  O     -137.680     267.546      87.919
  C     -138.770     266.382      86.076
  O     -139.458     266.646      84.827
  C     -137.688     265.326      85.777
  O     -138.026     264.010      86.195
  C     -137.413     265.537      84.294
  O     -136.794     264.426      83.668
  C     -138.791     265.919      83.772
  N     -140.121     266.220      78.875
  C     -140.525     265.310      79.831
  N     -141.226     264.247      79.379
  N     -140.236     265.419      81.102
  C     -139.435     266.473      81.387
  C     -138.969     267.440      80.523
  C     -139.321     267.327      79.128
  O     -138.891     268.046      78.229
  N     -138.121     268.316      81.151
  C     -138.046     267.863      82.386
  N     -138.797     266.723      82.566
  O     -135.568     267.810      89.505
  O     -135.469     268.336      87.052
  H     -135.922     264.297      84.088
  H     -134.782     267.651      87.190
  H     -140.307     266.035      77.896
  H     -137.443     268.294      83.177
  H     -139.392     265.033      83.545
  H     -136.714     266.379      84.208
  H     -141.338     264.060      78.391
  H     -136.777     265.543      86.341
  H     -141.316     263.455      80.007
  H     -139.514     266.025      86.797
  H     -137.290     267.964      85.975
  H     -138.879     268.508      86.524
  P     -137.218     262.653      85.977
  C     -135.507     263.289      87.782
  O     -135.698     262.882      86.441
  O     -137.084     262.499      84.392
  O     -137.864     261.441      86.564
  H     -137.197     261.559      84.147
  H     -134.485     263.673      87.887
  H     -135.635     262.433      88.446
  H     -136.212     264.078      88.055
  H     -137.891     271.473      89.129
  H     -137.702     270.156      90.262
  H     -138.755     269.975      88.880

 3  4  5  6  7  8  9  10  11  12  23  26  30  31 0
 6-311+G(2d,p)
 ****
 33  35  36  37  38 0
 6-311+G(2d,p)
 ****
 1  2  13  14  15  16  17  18  19  20  21  22  24  25 0
 3-21G
 ****
 27  28  29  32  34  39  40  41  42  43  44  45  46  47  48  49 0
 3-21G
 ****


