%nproc=1
%NoSave
%Mem=1900MB
#P OB98/GEN NMR

erre ene a

0 1
  C      -73.356     164.587     -20.853
  O      -73.406     163.613     -21.877
  P      -73.515     164.035     -23.417
  C      -76.063     163.765     -23.351
  O      -74.980     164.631     -23.665
  C      -77.011     163.605     -24.538
  O      -77.843     164.789     -24.655
  C      -76.302     163.395     -25.883
  O      -77.082     162.454     -26.630
  C      -76.369     164.768     -26.524
  O      -76.234     164.716     -27.936
  C      -77.727     165.255     -26.014
  N      -77.868     166.702     -26.092
  C      -78.442     167.219     -27.254
  O      -78.686     166.476     -28.208
  N      -78.711     168.565     -27.309
  C      -78.269     169.342     -26.371
  N      -78.616     170.657     -26.430
  C      -77.438     168.857     -25.250
  C      -77.315     167.537     -25.148
  O      -73.101     162.983     -24.392
  O      -72.576     165.327     -23.539
  H      -71.934     165.188     -24.261
  H      -75.990     165.605     -28.266
  H      -76.987     169.558     -24.563
  H      -76.747     167.082     -24.346
  H      -78.544     164.790     -26.583
  H      -75.562     165.398     -26.128
  H      -75.283     163.013     -25.772
  H      -77.678     162.759     -24.330
  H      -79.220     170.946     -27.189
  H      -76.613     164.198     -22.513
  H      -78.595     171.260     -25.606
  H      -75.678     162.791     -23.030
  P      -76.312     161.431     -27.605
  C      -76.449     162.925     -29.723
  O      -75.622     162.288     -28.768
  O      -77.539     160.740     -28.379
  O      -75.476     160.385     -26.945
  H      -77.261     159.860     -28.691
  H      -75.812     163.401     -30.472
  H      -77.055     163.698     -29.240
  H      -77.094     162.199     -30.221
  H      -73.285     164.102     -19.902
  H      -74.244     165.183     -20.884
  H      -72.501     165.214     -20.998

 3  4  5  6  7  8  9  10  11  12  13  24  27  28  29  30  32 0
 6-311+G(2d,p)
 ****
 34  35 0
 6-311+G(2d,p)
 ****
 1  2  14  15  16  17  18  19  20  21  22  23  25  26 0
 3-21G
 ****
 31  33  36  37  38  39  40  41  42  43  44  45  46 0
 3-21G
 ****


