%nproc=1
%NoSave
%Mem=1900MB
#P OB98/GEN NMR

erre ene a

0 1
  C      -85.915     195.941     -41.435
  O      -87.183     195.395     -41.755
  P      -87.299     194.073     -42.648
  C      -87.352     193.507     -45.148
  O      -87.030     194.495     -44.175
  C      -86.322     193.478     -46.276
  O      -85.022     193.129     -45.725
  C      -86.623     192.476     -47.401
  O      -86.149     193.059     -48.621
  C      -85.754     191.283     -47.034
  O      -85.494     190.422     -48.134
  C      -84.524     192.009     -46.483
  N      -81.611     187.798     -46.311
  C      -82.340     188.348     -47.310
  N      -83.109     189.458     -47.266
  C      -83.090     190.012     -46.043
  C      -82.421     189.542     -44.920
  C      -81.643     188.387     -45.091
  N      -80.870     187.828     -44.093
  N      -82.692     190.353     -43.825
  C      -83.502     191.284     -44.288
  N      -83.716     191.155     -45.639
  O      -88.539     193.265     -42.434
  O      -85.991     193.226     -42.269
  H      -84.916     189.696     -47.829
  H      -86.240     192.472     -41.706
  H      -82.285     187.839     -48.269
  H      -83.957     192.068     -43.698
  H      -83.886     192.391     -47.286
  H      -86.248     190.694     -46.247
  H      -87.685     192.207     -47.494
  H      -86.232     194.494     -46.689
  H      -88.338     193.748     -45.564
  H      -80.244     187.077     -44.359
  H      -80.652     188.385     -43.266
  H      -87.413     192.519     -44.670
  P      -86.989     192.891     -49.972
  C      -87.565     190.973     -51.572
  O      -86.791     191.375     -50.455
  O      -86.735     193.933     -51.019
  O      -88.515     192.920     -49.470
  H      -89.102     193.104     -50.222
  H      -88.583     190.726     -51.244
  H      -87.110     190.077     -52.015
  H      -87.612     191.764     -52.329
  H      -86.045     196.817     -40.835
  H      -85.400     196.200     -42.337
  H      -85.342     195.219     -40.892

 3  4  5  6  7  8  9  10  11  12  22  25  29  30  31  32 0
 6-311+G(2d,p)
 ****
 33  36  37 0
 6-311+G(2d,p)
 ****
 1  2  13  14  15  16  17  18  19  20  21  23  24  26 0
 3-21G
 ****
 27  28  34  35  38  39  40  41  42  43  44  45  46  47  48 0
 3-21G
 ****


