%nproc=1
%NoSave
%Mem=1900MB
#P OB98/GEN NMR

erre ene a

0 1
  C     -600.850     579.147    -717.184
  O     -602.214     578.932    -716.897
  H     -600.715     579.116    -718.268
  H     -600.237     578.357    -716.742
  H     -600.525     580.122    -716.816
  P     -602.696     578.879    -715.368
  C     -604.038     581.042    -715.704
  O     -603.000     580.406    -714.965
  C     -604.038     582.553    -715.466
  O     -602.683     583.066    -715.596
  C     -604.923     583.334    -716.450
  O     -605.732     584.268    -715.735
  C     -603.921     584.077    -717.322
  O     -604.463     585.250    -717.917
  C     -602.784     584.308    -716.316
  N     -601.539     584.668    -716.973
  C     -601.342     586.038    -717.216
  O     -602.199     586.852    -716.871
  N     -600.220     586.438    -717.897
  C     -599.381     585.547    -718.326
  N     -598.302     586.006    -719.008
  C     -599.561     584.094    -718.114
  C     -600.646     583.728    -717.435
  O     -601.775     578.154    -714.449
  O     -604.161     578.233    -715.424
  H     -603.724     585.802    -718.248
  H     -604.371     577.849    -714.539
  H     -598.834     583.396    -718.501
  H     -600.863     582.687    -717.234
  H     -603.047     585.095    -715.600
  H     -603.579     583.418    -718.127
  H     -605.566     582.689    -717.047
  H     -604.338     582.738    -714.428
  H     -598.226     587.010    -719.136
  H     -604.997     580.603    -715.402
  H     -597.598     585.416    -719.417
  H     -603.875     580.844    -716.767
  P     -607.317     584.070    -715.841
  C     -607.745     583.512    -713.340
  O     -607.758     583.046    -714.683
  O     -607.498     583.226    -717.193
  O     -608.077     585.351    -715.888
  H     -607.903     583.785    -717.876
  H     -608.060     582.725    -712.687
  H     -608.412     584.344    -713.245
  H     -606.754     583.818    -713.078

 6  7  8  9  10  11  12  13  14  15  16  26  30  31  32  33  35 0
 6-311+G(2d,p)
 ****
 37  38 0
 6-311+G(2d,p)
 ****
 1  2  3  4  5  17  18  19  20  21  22  23  24  25 0
 3-21G
 ****
 27  28  29  34  36  39  40  41  42  43  44  45  46 0
 3-21G
 ****


