%nproc=1
%NoSave
%Mem=1900MB
#P OB98/GEN NMR

erre ene a

0 1
  C       -8.239     -29.363      33.811
  O       -6.971     -29.686      33.275
  H       -8.996     -29.374      33.023
  H       -8.505     -30.111      34.564
  H       -8.209     -28.378      34.285
  P       -6.410     -28.725      32.118
  C       -7.364     -30.337      30.312
  O       -7.338     -29.019      30.841
  C       -8.336     -30.389      29.138
  O       -9.699     -30.392      29.621
  C       -8.232     -29.193      28.199
  O       -7.179     -29.327      27.260
  C       -9.588     -29.249      27.517
  O       -9.592     -30.291      26.527
  C      -10.509     -29.623      28.690
  N      -13.739     -25.666      28.330
  C      -13.452     -26.677      27.481
  N      -12.596     -27.703      27.660
  C      -12.011     -27.629      28.866
  C      -12.208     -26.663      29.840
  C      -13.119     -25.638      29.533
  N      -13.390     -24.588      30.384
  N      -11.410     -26.912      30.940
  C      -10.760     -28.019      30.640
  N      -11.064     -28.471      29.384
  O       -5.014     -29.395      31.710
  O       -6.284     -27.281      32.473
  H      -10.522     -30.440      26.273
  H       -4.483     -28.775      31.175
  H      -13.978     -26.656      26.530
  H      -10.054     -28.521      31.289
  H      -11.350     -30.253      28.381
  H       -9.842     -28.317      27.005
  H       -8.151     -28.251      28.755
  H       -8.174     -31.330      28.596
  H       -7.693     -31.030      31.094
  H      -13.941     -23.828      30.015
  H      -12.827     -24.478      31.213
  H       -6.360     -30.617      29.982
  P       -6.453     -27.981      26.764
  C       -8.196     -27.582      24.880
  O       -7.587     -27.085      26.066
  O       -5.569     -28.486      25.530
  O       -5.631     -27.296      27.807
  H       -4.748     -27.964      25.453
  H       -8.926     -26.881      24.533
  H       -8.671     -28.518      25.088
  H       -7.449     -27.721      24.127

 6  7  8  9  10  11  12  13  14  15  25  28  32  33  34  35 0
 6-311+G(2d,p)
 ****
 36  39  40 0
 6-311+G(2d,p)
 ****
 1  2  3  4  5  16  17  18  19  20  21  22  23  24 0
 3-21G
 ****
 26  27  29  30  31  37  38  41  42  43  44  45  46  47 0
 3-21G
 ****
 48 0
 3-21G
 ****


