%nproc=1
%NoSave
%Mem=1900MB
#P OB98/GEN NMR

erre ene a

0 1
  C     -960.318    -969.568    -892.490
  O     -959.107    -970.242    -892.820
  P     -959.050    -971.487    -893.840
  C     -956.953    -970.884    -895.220
  O     -958.384    -971.005    -895.210
  C     -956.519    -969.454    -894.850
  O     -956.948    -969.103    -893.520
  C     -955.005    -969.232    -894.830
  O     -954.488    -969.139    -896.150
  C     -954.906    -967.951    -894.020
  O     -955.153    -966.783    -894.830
  C     -956.033    -968.135    -892.980
  N     -955.535    -968.576    -891.680
  C     -956.151    -967.994    -890.560
  O     -957.019    -967.117    -890.710
  N     -955.771    -968.404    -889.310
  C     -954.800    -969.263    -889.180
  N     -954.462    -969.640    -887.910
  C     -954.083    -969.844    -890.330
  C     -954.500    -969.461    -891.540
  O     -960.354    -972.190    -894.010
  O     -957.953    -972.479    -893.210
  H     -956.064    -966.833    -895.130
  H     -958.177    -973.390    -893.450
  H     -953.247    -970.536    -890.190
  H     -954.020    -969.830    -892.440
  H     -956.601    -967.200    -892.860
  H     -953.929    -967.828    -893.560
  H     -954.526    -970.049    -894.300
  H     -956.994    -968.758    -895.560
  H     -954.995    -969.229    -887.150
  H     -956.578    -971.120    -896.230
  H     -953.741    -970.307    -887.700
  H     -956.525    -971.598    -894.500
  P     -953.916    -970.443    -896.890
  C     -955.085    -969.814    -899.080
  O     -954.912    -970.805    -898.090
  O     -953.557    -971.580    -896.010
  O     -952.619    -969.897    -897.650
  H     -951.957    -970.609    -897.710
  H     -955.446    -970.285    -900.000
  H     -954.152    -969.274    -899.290
  H     -955.845    -969.083    -898.740
  H     -960.110    -968.779    -891.798
  H     -961.002    -970.261    -892.046
  H     -960.751    -969.158    -893.378

 3  4  5  6  7  8  9  10  11  12  13  23  27  28  29  30  32 0
 6-311+G(2d,p)
 ****
 34  35 0
 6-311+G(2d,p)
 ****
 1  2  14  15  16  17  18  19  20  21  22  24  25  26 0
 3-21G
 ****
 31  33  36  37  38  39  40  41  42  43  44  45  46 0
 3-21G
 ****


