%nproc=1
%NoSave
%Mem=1900MB
#P OB98/GEN NMR

erre ene a

0 1
  C     -123.821     269.138    -267.610
  O     -123.959     270.452    -267.108
  H     -123.942     269.158    -268.696
  H     -124.598     268.498    -267.181
  H     -122.832     268.732    -267.374
  P     -123.512     270.707    -265.590
  C     -122.770     273.145    -266.082
  O     -123.619     272.292    -265.329
  C     -123.246     274.592    -265.975
  O     -124.440     274.761    -266.787
  C     -123.594     275.026    -264.544
  O     -123.168     276.384    -264.350
  C     -125.112     274.964    -264.511
  O     -125.680     275.831    -263.529
  C     -125.457     275.340    -265.950
  N     -130.034     276.736    -267.534
  C     -128.888     277.488    -267.341
  N     -128.979     278.813    -267.602
  N     -127.755     276.981    -266.927
  C     -127.805     275.640    -266.740
  C     -128.878     274.790    -266.893
  C     -130.134     275.367    -267.319
  O     -131.188     274.763    -267.488
  N     -128.537     273.495    -266.573
  C     -127.266     273.567    -266.230
  N     -126.774     274.847    -266.322
  O     -121.934     270.438    -265.623
  O     -124.191     269.853    -264.571
  H     -126.643     275.638    -263.490
  H     -121.721     269.666    -265.069
  H     -130.886     277.185    -267.841
  H     -126.655     272.736    -265.899
  H     -125.460     276.424    -266.108
  H     -125.430     273.936    -264.286
  H     -129.798     279.259    -267.967
  H     -123.138     274.393    -263.781
  H     -128.137     279.370    -267.503
  H     -122.475     275.248    -266.402
  H     -122.799     272.829    -267.132
  H     -121.747     273.061    -265.708
  P     -121.617     276.612    -263.987
  C     -121.484     279.007    -264.967
  O     -121.373     278.191    -263.807
  O     -120.866     276.259    -265.353
  O     -121.134     275.759    -262.860
  H     -120.396     275.411    -265.270
  H     -121.299     280.028    -264.704
  H     -122.470     278.917    -265.374
  H     -120.767     278.690    -265.696

 6  7  8  9  10  11  12  13  14  15  26  29  33  34 0
 6-311+G(2d,p)
 ****
 36  38  39  40  41 0
 6-311+G(2d,p)
 ****
 1  2  3  4  5  16  17  18  19  20  21  22  23  24  25 0
 3-21G
 ****
 27  28  30  31  32  35  37  42  43  44  45  46  47 0
 3-21G
 ****
 48  49 0
 3-21G
 ****


