%nproc=1
%NoSave
%Mem=1900MB
#P OB98/GEN NMR

erre ene a

0 1
  C      252.193     -84.362      13.388
  O      251.041     -84.688      12.639
  H      251.911     -84.249      14.437
  H      252.604     -83.414      13.032
  H      252.947     -85.150      13.306
  P      251.265     -85.200      11.137
  C      251.034     -82.890       9.986
  O      251.893     -83.972      10.310
  C      251.050     -82.633       8.478
  O      249.993     -81.692       8.156
  C      252.370     -82.047       7.963
  O      252.666     -82.622       6.688
  C      252.060     -80.570       7.799
  O      252.899     -79.938       6.833
  C      250.587     -80.612       7.410
  N      247.315     -77.216       5.637
  C      247.701     -78.437       5.121
  N      247.136     -78.809       3.952
  N      248.567     -79.227       5.700
  C      249.023     -78.744       6.882
  C      248.722     -77.549       7.495
  C      247.785     -76.672       6.827
  O      247.421     -75.569       7.222
  N      249.417     -77.406       8.669
  C      250.135     -78.511       8.764
  N      249.925     -79.355       7.708
  O      249.775     -85.314      10.565
  O      252.001     -86.491      11.003
  H      252.729     -78.972       6.883
  H      249.570     -86.246      10.362
  H      246.655     -76.640       5.140
  H      250.823     -78.742       9.565
  H      250.441     -80.811       6.341
  H      252.199     -80.055       8.757
  H      246.428     -78.273       3.475
  H      253.208     -82.218       8.641
  H      247.375     -79.718       3.572
  H      250.809     -83.571       7.962
  H      251.379     -81.994      10.510
  H      250.016     -83.126      10.311
  P      254.003     -83.504       6.578
  C      255.764     -81.609       6.474
  O      255.210     -82.671       7.235
  O      254.332     -83.475       5.012
  O      253.847     -84.902       7.078
  H      254.143     -84.346       4.617
  H      256.552     -81.146       7.029
  H      255.003     -80.886       6.264
  H      256.154     -81.994       5.555

 6  7  8  9  10  11  12  13  14  15  26  29  33  34 0
 6-311+G(2d,p)
 ****
 36  38  39  40  41 0
 6-311+G(2d,p)
 ****
 1  2  3  4  5  16  17  18  19  20  21  22  23  24  25 0
 3-21G
 ****
 27  28  30  31  32  35  37  42  43  44  45  46  47 0
 3-21G
 ****
 48  49 0
 3-21G
 ****


