%nproc=1
%NoSave
%Mem=1900MB
#P OB98/GEN NMR

erre ene a

0 1
  C     -245.807     429.591    -114.760
  O     -245.397     430.602    -115.659
  H     -246.849     429.335    -114.966
  H     -245.736     429.968    -113.735
  H     -245.193     428.694    -114.870
  P     -243.821     430.854    -115.811
  C     -241.996     429.008    -115.857
  O     -243.196     429.507    -116.428
  C     -241.407     427.905    -116.736
  O     -242.356     426.796    -116.787
  C     -241.118     428.339    -118.182
  O     -239.922     427.684    -118.632
  C     -242.292     427.759    -118.947
  O     -242.001     427.567    -120.330
  C     -242.522     426.462    -118.179
  N     -245.596     425.146    -121.923
  C     -244.259     425.496    -121.939
  N     -243.655     425.567    -123.146
  N     -243.568     425.761    -120.860
  C     -244.287     425.634    -119.720
  C     -245.612     425.298    -119.569
  C     -246.370     425.027    -120.773
  O     -247.560     424.733    -120.827
  N     -245.983     425.340    -118.248
  C     -244.888     425.717    -117.603
  N     -243.836     425.908    -118.457
  O     -243.316     430.844    -114.291
  O     -243.442     432.114    -116.516
  H     -241.312     426.879    -120.402
  H     -243.278     431.757    -113.950
  H     -246.085     424.972    -122.786
  H     -244.815     425.882    -116.538
  H     -241.789     425.687    -118.435
  H     -243.160     428.424    -118.867
  H     -244.113     425.349    -124.018
  H     -241.018     429.423    -118.309
  H     -242.667     425.783    -123.172
  H     -240.498     427.523    -116.256
  H     -242.211     428.596    -114.864
  H     -241.280     429.831    -115.749
  P     -238.527     428.450    -118.447
  C     -236.897     428.920    -116.471
  O     -237.949     428.120    -116.988
  O     -238.972     429.984    -118.324
  O     -237.571     428.246    -119.573
  H     -238.298     430.557    -118.731
  H     -236.630     428.571    -115.496
  H     -237.221     429.938    -116.409
  H     -236.048     428.854    -117.119

 6  7  8  9  10  11  12  13  14  15  26  29  33  34 0
 6-311+G(2d,p)
 ****
 36  38  39  40  41 0
 6-311+G(2d,p)
 ****
 1  2  3  4  5  16  17  18  19  20  21  22  23  24  25 0
 3-21G
 ****
 27  28  30  31  32  35  37  42  43  44  45  46  47 0
 3-21G
 ****
 48  49 0
 3-21G
 ****


