%nproc=1
%NoSave
%Mem=1900MB
#P OB98/GEN NMR

erre ene a

0 1
  C      194.631    -284.368     295.488
  O      193.866    -285.444     295.998
  H      194.423    -283.473     296.082
  H      194.356    -284.173     294.447
  H      195.695    -284.599     295.554
  P      194.059    -286.866     295.280
  C      192.856    -288.148     297.201
  O      192.873    -287.802     295.826
  C      192.235    -289.543     297.389
  O      190.782    -289.417     297.347
  C      192.628    -290.547     296.287
  O      192.631    -291.871     296.852
  C      191.464    -290.422     295.318
  O      191.436    -291.513     294.433
  C      190.311    -290.311     296.313
  N      185.739    -291.641     294.484
  C      186.703    -292.354     295.102
  N      187.896    -291.925     295.565
  C      188.030    -290.599     295.369
  C      187.136    -289.741     294.761
  C      185.938    -290.311     294.292
  N      184.954    -289.590     293.649
  N      187.642    -288.454     294.720
  C      188.823    -288.539     295.312
  N      189.095    -289.815     295.715
  O      195.368    -287.455     295.984
  O      194.192    -286.828     293.793
  H      191.252    -292.349     294.910
  H      196.162    -287.222     295.467
  H      186.497    -293.420     295.232
  H      189.516    -287.714     295.453
  H      190.082    -291.279     296.784
  H      191.554    -289.512     294.713
  H      193.607    -290.338     295.839
  H      192.488    -289.923     298.389
  H      192.260    -287.404     297.744
  H      193.880    -288.153     297.593
  H      184.143    -290.084     293.325
  H      185.105    -288.609     293.470
  P      194.043    -292.607     297.117
  C      193.148    -294.076     299.082
  O      193.804    -294.035     297.826
  O      194.650    -291.730     298.316
  O      194.984    -292.630     295.960
  H      195.589    -291.527     298.129
  H      193.070    -295.091     299.411
  H      192.169    -293.656     298.987
  H      193.710    -293.512     299.797

 6  7  8  9  10  11  12  13  14  15  25  28  32  33  34  35 0
 6-311+G(2d,p)
 ****
 36  37  40 0
 6-311+G(2d,p)
 ****
 1  2  3  4  5  16  17  18  19  20  21  22  23  24 0
 3-21G
 ****
 26  27  29  30  31  38  39 41  42  43  44  45  46  47  48 0
 3-21G
 ****


