%nproc=1
%NoSave
%Mem=1900MB
#P OB98/GEN NMR

erre ene a

0 1
  C     -899.146     169.221    -546.408
  O     -898.766     168.580    -545.183
  P     -897.546     167.579    -545.028
  C     -897.706     168.001    -542.448
  O     -897.506     167.073    -543.500
  C     -897.246     167.463    -541.080
  O     -897.826     166.161    -540.830
  C     -895.716     167.243    -541.092
  O     -894.836     168.335    -540.824
  C     -895.496     166.034    -540.164
  O     -895.216     166.435    -538.824
  C     -896.846     165.305    -540.255
  N     -897.346     160.206    -540.156
  C     -897.476     161.104    -539.117
  N     -897.736     160.600    -537.894
  N     -897.356     162.399    -539.276
  C     -897.026     162.767    -540.529
  C     -896.846     161.982    -541.635
  C     -897.026     160.539    -541.479
  O     -896.936     159.700    -542.364
  N     -896.486     162.712    -542.753
  C     -896.426     163.955    -542.302
  N     -896.746     164.059    -540.967
  O     -896.246     168.031    -545.634
  O     -898.036     166.260    -545.852
  H     -894.926     165.625    -538.338
  H     -897.236     165.868    -546.234
  H     -897.466     159.213    -540.007
  H     -896.166     164.821    -542.908
  H     -897.216     165.064    -539.233
  H     -894.656     165.454    -540.517
  H     -897.726     159.598    -537.693
  H     -895.446     166.901    -542.081
  H     -897.616     161.230    -537.116
  H     -897.576     168.107    -540.270
  H     -898.766     168.246    -542.415
  H     -897.176     168.941    -542.665
  P     -893.796     168.970    -541.871
  C     -894.366     171.330    -541.012
  O     -893.326     170.411    -541.286
  O     -894.726     169.397    -543.131
  O     -892.686     168.073    -542.289
  H     -894.156     169.550    -543.910
  H     -893.956     172.341    -540.907
  H     -894.846     171.076    -540.041
  H     -895.136     171.336    -541.792
  H     -900.000     169.843    -546.235
  H     -899.388     168.478    -547.139
  H     -898.335     169.820    -546.764

 3  4  5  6  7  8  9  10  11  12  23  26  30  31 0
 6-311+G(2d,p)
 ****
 33  35  36  37  38 0
 6-311+G(2d,p)
 ****
 1  2  13  14  15  16  17  18  19  20  21  22  24  25 0
 3-21G
 ****
 27  28  29  32  34  39  40  41  42  43  44  45  46  47  48  49 0
 3-21G
 ****


