%nproc=1
%NoSave
%Mem=1900MB
#P OB98/GEN NMR

erre ene a

0 1
  C     -528.402     371.718       8.085
  O     -528.190     372.938       8.760
  H     -529.456     371.447       8.171
  H     -527.800     370.928       8.545
  H     -528.146     371.811       7.027
  P     -526.739     373.613       8.632
  C     -526.282     374.549      11.012
  O     -526.702     374.827       9.682
  C     -526.129     375.852      11.806
  O     -525.078     376.648      11.199
  C     -527.400     376.701      11.845
  O     -527.513     377.297      13.141
  C     -527.146     377.786      10.812
  O     -527.894     378.977      11.058
  C     -525.620     377.954      10.913
  N     -525.060     378.522       9.687
  C     -525.377     379.856       9.418
  O     -526.108     380.491      10.180
  N     -524.917     380.414       8.254
  C     -524.261     379.690       7.397
  N     -523.859     380.298       6.249
  C     -523.964     378.257       7.621
  C     -524.383     377.746       8.776
  O     -526.798     374.357       7.217
  O     -525.584     372.671       8.734
  H     -528.822     378.820      10.778
  H     -525.918     374.378       6.791
  H     -523.443     377.689       6.868
  H     -524.213     376.704       9.028
  H     -525.363     378.607      11.755
  H     -527.417     377.412       9.819
  H     -528.309     376.131      11.626
  H     -525.793     375.600      12.824
  H     -524.093     381.274       6.133
  H     -525.314     374.039      10.976
  H     -523.384     379.813       5.495
  H     -527.014     373.890      11.493
  P     -528.500     376.568      14.181
  C     -528.214     378.788      15.506
  O     -528.449     377.386      15.562
  O     -527.741     375.200      14.513
  O     -529.871     376.323      13.638
  H     -528.209     374.450      14.103
  H     -528.208     379.189      16.498
  H     -528.989     379.257      14.936
  H     -527.268     378.973      15.041

 6  7  8  9  10  11  12  13  14  15  16  26  30  31  32  33  35 0
 6-311+G(2d,p)
 ****
 37  38 0
 6-311+G(2d,p)
 ****
 1  2  3  4  5  17  18  19  20  21  22  23  24  25 0
 3-21G
 ****
 27  28  29  34  36  39  40  41  42  43  44  45  46 0
 3-21G
 ****


