%nproc=1
%NoSave
%Mem=1900MB
#P OB98/GEN NMR

erre ene a

0 1
  C     -252.285      75.739      66.666
  O     -252.893      75.946      65.407
  H     -251.431      76.412      66.760
  H     -251.928      74.708      66.742
  H     -252.991      75.949      67.476
  P     -254.304      75.231      65.144
  C     -253.545      73.613      63.255
  O     -254.299      74.764      63.606
  C     -253.342      73.564      61.740
  O     -252.502      74.685      61.347
  C     -252.656      72.283      61.243
  O     -253.220      71.930      59.973
  C     -251.215      72.720      61.047
  O     -250.491      71.913      60.126
  C     -251.416      74.159      60.560
  N     -250.212      74.975      60.712
  C     -249.491      75.270      59.557
  O     -249.838      74.968      58.417
  N     -248.315      75.950      59.756
  C     -247.794      76.328      60.958
  O     -246.725      76.915      61.069
  C     -248.596      75.980      62.138
  C     -249.748      75.327      61.964
  O     -255.334      76.456      65.155
  O     -254.674      74.163      66.117
  H     -255.664      76.616      66.059
  H     -250.771      70.986      60.266
  H     -247.780      76.171      58.930
  H     -248.209      76.256      63.113
  H     -250.354      75.036      62.817
  H     -251.737      74.168      59.512
  H     -250.686      72.702      62.005
  H     -252.739      71.435      61.932
  H     -254.314      73.702      61.250
  H     -254.084      72.715      63.572
  H     -252.578      73.645      63.769
  P     -253.810      70.446      59.812
  C     -253.487      70.833      57.240
  O     -254.306      70.343      58.292
  O     -255.154      70.557      60.668
  O     -252.855      69.390      60.261
  H     -255.578      71.429      60.604
  H     -253.980      70.679      56.303
  H     -252.553      70.310      57.242
  H     -253.311      71.879      57.383

 6  7  8  9  10  11  12  13  14  15  16  27  31  32  33  34  35 0
 6-311+G(2d,p)
 ****
 36  37 0
 6-311+G(2d,p)
 ****
 1  2  3  4  5  17  18  19  20  21  22  23  24  25 0
 3-21G
 ****
 26  28  29  30  38  39  40  41  42  43  44  45 0
 3-21G
 ****


