%nproc=1
%NoSave
%Mem=1900MB
#P OB98/GEN NMR

erre ene a

0 1
  C      375.683    -257.817     419.226
  O      374.281    -257.986     419.263
  H      376.093    -258.085     420.202
  H      375.922    -256.768     419.024
  H      376.130    -258.458     418.465
  P      373.476    -257.800     417.885
  C      371.140    -258.579     417.050
  O      371.965    -258.270     418.165
  C      369.785    -259.112     417.522
  O      370.003    -260.298     418.329
  C      368.992    -258.106     418.361
  O      367.606    -258.225     418.021
  C      369.208    -258.582     419.793
  O      368.153    -258.186     420.667
  C      369.340    -260.099     419.589
  N      370.080    -260.716     420.691
  C      369.408    -260.813     421.922
  O      368.252    -260.392     422.032
  N      370.071    -261.347     422.995
  C      371.326    -261.659     422.891
  N      371.936    -262.153     423.998
  C      372.095    -261.507     421.632
  C      371.411    -261.042     420.584
  O      374.052    -258.970     416.957
  O      373.597    -256.455     417.249
  H      368.309    -258.600     421.544
  H      374.059    -258.709     416.017
  H      373.144    -261.760     421.598
  H      371.896    -260.887     419.626
  H      368.347    -260.565     419.523
  H      370.146    -258.166     420.174
  H      369.312    -257.074     418.220
  H      369.211    -259.425     416.637
  H      371.387    -262.227     424.847
  H      371.636    -259.351     416.449
  H      372.927    -262.387     424.042
  H      371.007    -257.679     416.435
  P      366.903    -256.932     417.401
  C      364.948    -256.802     415.687
  O      365.424    -257.335     416.912
  O      367.698    -256.696     416.033
  O      366.957    -255.726     418.298
  H      368.277    -255.909     416.116
  H      363.957    -257.161     415.503
  H      365.592    -257.109     414.890
  H      364.935    -255.734     415.744

 6  7  8  9  10  11  12  13  14  15  16  26  30  31  32  33  35 0
 6-311+G(2d,p)
 ****
 37  38 0
 6-311+G(2d,p)
 ****
 1  2  3  4  5  17  18  19  20  21  22  23  24  25 0
 3-21G
 ****
 27  28  29  34  36  39  40  41  42  43  44  45  46 0
 3-21G
 ****


