%nproc=1
%NoSave
%Mem=1900MB
#P OB98/GEN NMR

erre ene a

0 1
  C      221.021     -27.409      47.883
  O      220.360     -28.588      48.299
  H      221.498     -26.948      48.752
  H      220.299     -26.704      47.458
  H      221.788     -27.646      47.142
  P      219.605     -29.424      47.159
  C      221.756     -29.716      45.714
  O      220.725     -30.339      46.466
  C      222.591     -30.771      44.977
  O      223.656     -30.095      44.243
  C      223.271     -31.787      45.910
  O      223.422     -33.019      45.184
  C      224.636     -31.149      46.117
  O      225.543     -32.067      46.681
  C      224.906     -30.660      44.697
  N      229.110     -29.270      42.141
  C      228.224     -30.268      41.939
  N      227.123     -30.569      42.654
  C      226.957     -29.698      43.664
  C      227.771     -28.624      43.990
  C      228.899     -28.420      43.177
  N      229.806     -27.408      43.386
  N      227.277     -27.957      45.099
  C      226.186     -28.617      45.434
  N      225.959     -29.679      44.600
  O      219.276     -28.318      46.050
  O      218.383     -30.155      47.601
  H      225.237     -32.367      47.562
  H      218.369     -27.983      46.175
  H      228.433     -30.916      41.090
  H      225.538     -28.379      46.265
  H      225.158     -31.489      44.024
  H      224.570     -30.307      46.815
  H      222.714     -31.970      46.831
  H      221.962     -31.270      44.231
  H      222.393     -29.149      46.401
  H      221.312     -29.030      44.983
  H      230.598     -27.342      42.766
  H      229.671     -26.780      44.164
  P      222.417     -34.238      45.495
  C      219.996     -33.768      44.621
  O      221.293     -34.278      44.352
  O      221.592     -33.676      46.750
  O      223.064     -35.541      45.828
  H      221.284     -34.423      47.298
  H      219.383     -33.876      43.751
  H      220.067     -32.732      44.881
  H      219.561     -34.311      45.434

 6  7  8  9  10  11  12  13  14  15  25  28  32  33  34  35 0
 6-311+G(2d,p)
 ****
 36  37  40 0
 6-311+G(2d,p)
 ****
 1  2  3  4  5  16  17  18  19  20  21  22  23  24 0
 3-21G
 ****
 26  27  29  30  31  38  39 41  42  43  44  45  46  47  48 0
 3-21G
 ****


