%nproc=1
%NoSave
%Mem=1900MB
#P OB98/GEN NMR

erre ene a

0 1
  C     -362.499     -14.294    -165.070
  O     -361.407     -14.601    -165.914
  P     -360.362     -15.752    -165.532
  C     -361.452     -17.598    -166.937
  O     -361.122     -17.160    -165.627
  C     -360.272     -18.307    -167.603
  O     -359.907     -19.475    -166.815
  C     -360.552     -18.780    -169.039
  O     -359.346     -18.582    -169.790
  C     -360.834     -20.259    -168.866
  O     -360.631     -20.993    -170.065
  C     -359.878     -20.602    -167.718
  N     -360.247     -21.834    -167.036
  C     -359.713     -23.021    -167.544
  O     -359.074     -23.012    -168.598
  N     -359.926     -24.188    -166.849
  C     -360.758     -24.194    -165.855
  N     -360.889     -25.351    -165.153
  C     -361.533     -23.005    -165.447
  C     -361.198     -21.861    -166.046
  O     -359.616     -15.532    -164.258
  O     -359.357     -15.800    -166.782
  H     -358.438     -15.719    -166.456
  H     -360.881     -21.929    -169.910
  H     -362.302     -23.085    -164.696
  H     -361.693     -20.928    -165.798
  H     -358.850     -20.694    -168.087
  H     -361.878     -20.399    -168.552
  H     -361.369     -18.227    -169.513
  H     -359.414     -17.629    -167.590
  H     -360.311     -26.136    -165.432
  H     -361.720     -16.722    -167.532
  H     -361.250     -25.370    -164.197
  H     -362.326     -18.258    -166.900
  P     -359.473     -18.153    -171.335
  C     -358.713     -15.701    -170.947
  O     -359.734     -16.569    -171.385
  O     -360.920     -18.742    -171.713
  O     -358.443     -18.700    -172.265
  H     -360.954     -18.908    -172.674
  H     -359.086     -14.673    -170.985
  H     -357.838     -15.780    -171.599
  H     -358.426     -15.928    -169.913
  H     -363.073     -13.501    -165.503
  H     -362.134     -13.988    -164.112
  H     -363.117     -15.160    -164.956

 3  4  5  6  7  8  9  10  11  12  13  24  27  28  29  30  32 0
 6-311+G(2d,p)
 ****
 34  35 0
 6-311+G(2d,p)
 ****
 1  2  14  15  16  17  18  19  20  21  22  23  25  26 0
 3-21G
 ****
 31  33  36  37  38  39  40  41  42  43  44  45  46 0
 3-21G
 ****


