%nproc=1
%NoSave
%Mem=1900MB
#P OB98/GEN NMR

erre ene a

0 1
  C      500.126    -199.638      31.521
  O      499.208    -199.573      30.450
  H      500.176    -200.665      31.875
  H      499.781    -199.000      32.338
  H      501.128    -199.327      31.197
  P      499.222    -198.233      29.559
  C      497.567    -196.989      31.132
  O      497.822    -197.497      29.825
  C      496.068    -196.852      31.370
  O      495.532    -195.751      30.601
  C      495.253    -198.083      30.973
  O      495.260    -199.065      32.003
  C      493.874    -197.468      30.803
  O      493.285    -197.245      32.103
  C      494.202    -196.124      30.139
  N      491.610    -197.479      25.987
  C      491.310    -197.678      27.329
  N      490.161    -198.333      27.597
  N      492.076    -197.270      28.310
  C      493.202    -196.647      27.888
  C      493.606    -196.399      26.597
  C      492.748    -196.837      25.523
  O      492.961    -196.680      24.320
  N      494.812    -195.743      26.565
  C      495.143    -195.615      27.836
  N      494.200    -196.148      28.684
  O      499.083    -198.797      28.064
  O      500.445    -197.391      29.707
  H      493.653    -196.408      32.443
  H      499.956    -198.778      27.632
  H      490.993    -197.820      25.269
  H      496.047    -195.143      28.192
  H      493.515    -195.328      30.439
  H      493.183    -198.118      30.253
  H      489.544    -198.698      26.891
  H      495.590    -198.503      30.012
  H      489.922    -198.487      28.570
  H      495.914    -196.613      32.432
  H      498.044    -196.003      31.226
  H      498.002    -197.669      31.872
  P      496.449    -200.137      32.024
  C      494.990    -202.231      31.555
  O      495.814    -201.534      32.481
  O      497.311    -199.681      33.291
  O      497.285    -200.192      30.788
  H      498.183    -199.334      33.003
  H      494.642    -203.140      32.001
  H      495.555    -202.459      30.676
  H      494.152    -201.619      31.292

 6  7  8  9  10  11  12  13  14  15  26  29  33  34 0
 6-311+G(2d,p)
 ****
 36  38  39  40  41 0
 6-311+G(2d,p)
 ****
 1  2  3  4  5  16  17  18  19  20  21  22  23  24  25 0
 3-21G
 ****
 27  28  30  31  32  35  37  42  43  44  45  46  47 0
 3-21G
 ****
 48  49 0
 3-21G
 ****


