%nproc=1
%NoSave
%Mem=1900MB
#P OB98/GEN NMR

erre ene a

0 1
  C      143.728    -405.157      53.350
  O      145.138    -405.104      53.181
  P      145.918    -406.473      52.878
  C      146.102    -405.914      50.353
  O      145.647    -406.833      51.337
  C      146.826    -406.634      49.217
  O      147.897    -407.444      49.778
  C      145.939    -407.568      48.387
  O      146.437    -407.544      47.043
  C      146.215    -408.930      48.993
  O      145.880    -409.995      48.103
  C      147.702    -408.797      49.306
  N      148.538    -413.737      50.326
  C      148.123    -413.105      49.208
  N      147.926    -411.787      49.010
  C      148.199    -411.095      50.131
  C      148.593    -411.600      51.356
  C      148.770    -412.993      51.437
  N      149.198    -413.636      52.574
  N      148.750    -410.582      52.274
  C      148.453    -409.483      51.615
  N      148.140    -409.743      50.310
  O      145.049    -407.556      53.676
  O      147.343    -406.498      53.306
  H      144.969    -409.853      47.785
  H      145.560    -407.902      54.430
  H      147.932    -413.749      48.351
  H      148.449    -408.486      52.032
  H      148.326    -408.935      48.415
  H      145.620    -409.058      49.908
  H      144.876    -407.305      48.401
  H      147.295    -405.880      48.575
  H      146.798    -405.213      50.824
  H      149.434    -414.613      52.513
  H      149.555    -413.078      53.345
  H      145.251    -405.348      49.960
  P      145.396    -407.140      45.891
  C      145.994    -404.695      45.267
  O      145.158    -405.566      46.013
  O      144.018    -407.776      46.402
  O      145.765    -407.646      44.536
  H      143.443    -407.981      45.640
  H      145.415    -403.819      44.973
  H      146.389    -405.179      44.371
  H      146.831    -404.377      45.901
  H      143.355    -404.173      53.544
  H      143.491    -405.797      54.174
  H      143.276    -405.540      52.459

 3  4  5  6  7  8  9  10  11  12  22  25  29  30  31  32 0
 6-311+G(2d,p)
 ****
 33  36  37 0
 6-311+G(2d,p)
 ****
 1  2  13  14  15  16  17  18  19  20  21  23  24  26 0
 3-21G
 ****
 27  28  34  35  38  39  40  41  42  43  44  45  46  47  48 0
 3-21G
 ****


