%nproc=1
%NoSave
%Mem=1900MB
#P OB98/GEN NMR

erre ene a

0 1
  C      -13.131      29.000     138.308
  O      -12.012      29.179     137.462
  H      -13.543      28.004     138.134
  H      -13.901      29.740     138.080
  H      -12.834      29.077     139.358
  P      -11.220      30.574     137.521
  C      -11.838      30.836     135.016
  O      -10.805      30.854     135.993
  C      -11.543      31.854     133.918
  O      -11.601      33.205     134.427
  C      -10.158      31.742     133.292
  O      -10.012      30.632     132.422
  C      -10.096      33.067     132.553
  O      -10.902      32.997     131.367
  C      -10.718      34.020     133.603
  N       -9.709      34.683     134.430
  C       -9.028      35.755     133.841
  O       -9.273      36.103     132.688
  N       -8.056      36.399     134.571
  C       -7.770      35.990     135.768
  N       -6.793      36.657     136.440
  C       -8.448      34.852     136.416
  C       -9.397      34.251     135.702
  O      -10.107      30.653     138.515
  O      -12.363      31.672     137.750
  H      -11.086      33.913     131.090
  H      -11.923      32.556     137.805
  H       -8.153      34.532     137.405
  H       -9.940      33.404     136.106
  H      -11.339      34.782     133.116
  H       -9.086      33.341     132.243
  H       -9.377      31.736     134.067
  H      -12.336      31.760     133.164
  H       -6.343      37.435     135.971
  H      -12.786      31.061     135.516
  H       -6.453      36.361     137.347
  H      -11.903      29.845     134.559
  P       -9.201      29.363     132.989
  C       -7.784      29.299     130.794
  O       -8.612      28.599     131.709
  O      -10.362      28.403     133.520
  O       -8.185      29.678     134.042
  H      -10.470      28.492     134.488
  H       -7.484      28.639     130.007
  H       -6.917      29.663     131.304
  H       -8.327      30.123     130.381

 6  7  8  9  10  11  12  13  14  15  16  26  30  31  32  33  35 0
 6-311+G(2d,p)
 ****
 37  38 0
 6-311+G(2d,p)
 ****
 1  2  3  4  5  17  18  19  20  21  22  23  24  25 0
 3-21G
 ****
 27  28  29  34  36  39  40  41  42  43  44  45  46 0
 3-21G
 ****


