%nproc=1
%NoSave
%Mem=1900MB
#P OB98/GEN NMR

erre ene a

0 1
  C       97.308    -228.661     -23.224
  O       96.406    -227.799     -23.889
  H       98.145    -228.068     -22.845
  H       97.697    -229.423     -23.904
  H       96.811    -229.142     -22.375
  P       95.224    -228.462     -24.752
  C       95.108    -229.862     -26.919
  O       95.954    -229.229     -25.962
  C       95.795    -229.947     -28.285
  O       96.920    -230.843     -28.218
  C       94.905    -230.505     -29.385
  O       93.849    -229.648     -29.765
  C       95.917    -230.958     -30.425
  O       96.319    -229.919     -31.316
  C       97.117    -231.381     -29.542
  N       97.295    -232.829     -29.520
  C       98.084    -233.357     -30.533
  O       98.597    -232.674     -31.423
  N       98.237    -234.718     -30.524
  C       97.648    -235.581     -29.644
  O       97.792    -236.795     -29.716
  C       96.804    -234.965     -28.612
  C       96.666    -233.637     -28.595
  O       94.138    -227.527     -25.196
  O       94.704    -229.659     -23.826
  H       96.657    -229.186     -30.768
  H       93.815    -229.974     -24.119
  H       98.816    -235.117     -31.245
  H       96.317    -235.621     -27.901
  H       96.046    -233.158     -27.840
  H       98.044    -230.938     -29.926
  H       95.523    -231.772     -31.041
  H       94.428    -231.416     -29.005
  H       96.168    -228.949     -28.548
  H       94.198    -229.259     -27.009
  H       94.835    -230.861     -26.565
  P       92.663    -230.095     -30.737
  C       92.517    -231.270     -33.051
  O       93.277    -231.062     -31.866
  O       91.695    -229.036     -31.151
  O       91.864    -231.139     -29.800
  H       90.913    -231.063     -30.017
  H       93.048    -231.930     -33.704
  H       92.359    -230.333     -33.543
  H       91.572    -231.703     -32.797

 6  7  8  9  10  11  12  13  14  15  16  26  31  32  33  34  35 0
 6-311+G(2d,p)
 ****
 36  37 0
 6-311+G(2d,p)
 ****
 1  2  3  4  5  17  18  19  20  21  22  23  24  25 0
 3-21G
 ****
 27  28  29  30  38  39  40  41  42  43  44  45 0
 3-21G
 ****


