%nproc=1
%NoSave
%Mem=1900MB
#P OB98/GEN NMR

erre ene a

0 1
  C      -12.536      75.730     -47.013
  O      -12.588      75.318     -45.643
  P      -11.372      75.753     -44.695
  C      -10.348      73.386     -44.328
  O      -10.994      74.516     -43.751
  C      -10.711      72.119     -43.553
  O      -12.137      71.973     -43.432
  C      -10.235      70.844     -44.233
  O       -8.852      70.649     -44.015
  C      -11.117      69.788     -43.578
  O      -10.511      69.252     -42.391
  C      -12.404      70.572     -43.233
  N      -13.552      70.137     -44.010
  C      -14.212      68.997     -43.540
  O      -13.801      68.410     -42.536
  N      -15.304      68.537     -44.233
  C      -15.685      69.147     -45.311
  N      -16.770      68.643     -45.959
  C      -14.997      70.337     -45.857
  C      -13.949      70.774     -45.162
  O      -12.048      76.796     -43.685
  O      -10.221      76.364     -45.427
  H       -9.691      68.809     -42.692
  H      -11.407      77.480     -43.426
  H      -15.348      70.806     -46.765
  H      -13.383      71.639     -45.492
  H      -12.650      70.450     -42.172
  H      -11.294      68.943     -44.250
  H      -10.450      70.892     -45.308
  H      -10.275      72.189     -42.546
  H      -17.214      67.824     -45.559
  H       -9.266      73.530     -44.323
  H      -17.147      69.034     -46.812
  H      -10.650      73.306     -45.379
  P       -7.955      70.203     -45.262
  C       -7.421      67.911     -44.237
  O       -6.899      69.154     -44.664
  O       -7.036      71.499     -45.496
  O       -8.667      69.795     -46.507
  H       -6.502      71.389     -46.302
  H       -6.589      67.227     -44.053
  H       -8.067      67.480     -45.004
  H       -7.979      68.044     -43.307
  H      -13.405      75.373     -47.526
  H      -11.659      75.326     -47.474
  H      -12.506      76.798     -47.063

 3  4  5  6  7  8  9  10  11  12  13  21  23  27  28  29  30  32 0
 6-311+G(2d,p)
 ****
 34  35 0
 6-311+G(2d,p)
 ****
 1  2  14  15  16  17  18  19  20  22  24  25  26 0
 3-21G
 ****
 31  33  36  37  38  39  40  41  42  43  44  45  46 0
 3-21G
 ****


