%nproc=1
%NoSave
%Mem=1900MB
#P OB98/GEN NMR

erre ene a

0 1
  C      419.488     -20.268      45.652
  O      418.606     -19.162      45.432
  P      418.841     -17.854      46.335
  C      417.739     -18.556      48.571
  O      418.950     -18.315      47.870
  C      418.000     -19.225      49.926
  O      416.762     -19.373      50.679
  C      418.620     -20.622      49.813
  O      419.491     -20.804      50.936
  C      417.426     -21.541      49.970
  O      417.823     -22.859      50.340
  C      416.624     -20.768      51.017
  N      413.398     -24.615      51.946
  C      414.740     -24.528      52.013
  N      415.531     -23.468      51.726
  C      414.785     -22.409      51.376
  C      413.407     -22.348      51.250
  C      412.698     -23.522      51.551
  N      411.330     -23.622      51.457
  N      413.010     -21.097      50.818
  C      414.135     -20.418      50.684
  N      415.227     -21.158      51.036
  O      417.428     -17.105      46.264
  O      419.947     -16.978      45.850
  H      417.051     -23.451      50.242
  H      417.501     -16.309      45.707
  H      415.256     -25.431      52.340
  H      414.209     -19.402      50.328
  H      417.013     -20.919      52.033
  H      416.874     -21.601      49.026
  H      419.173     -20.804      48.884
  H      418.663     -18.576      50.510
  H      417.085     -19.199      47.977
  H      410.900     -24.508      51.664
  H      410.801     -22.830      51.121
  H      417.201     -17.610      48.693
  P      420.989     -20.256      50.776
  C      421.794     -22.250      49.322
  O      421.543     -20.858      49.401
  O      421.808     -21.057      51.897
  O      421.121     -18.777      50.938
  H      422.592     -20.549      52.169
  H      421.463     -22.611      48.344
  H      421.268     -22.809      50.101
  H      422.867     -22.422      49.421
  H      419.227     -21.069      44.992
  H      419.400     -20.598      46.666
  H      420.496     -19.964      45.462

 3  4  5  6  7  8  9  10  11  12  22  25  29  30  31  32 0
 6-311+G(2d,p)
 ****
 33  36  37 0
 6-311+G(2d,p)
 ****
 1  2  13  14  15  16  17  18  19  20  21  23  24  26 0
 3-21G
 ****
 27  28  34  35  38  39  40  41  42  43  44  45  46  47  48 0
 3-21G
 ****


