%nproc=1
%NoSave
%Mem=1900MB
#P OB98/GEN NMR

erre ene a

0 1
  C     -423.484     690.535     -74.163
  O     -422.507     691.458     -74.627
  P     -422.991     692.949     -74.973
  C     -424.425     692.238     -77.008
  O     -424.417     692.813     -75.705
  C     -424.440     693.331     -78.076
  O     -424.339     692.703     -79.389
  C     -425.707     694.201     -78.072
  O     -425.338     695.576     -78.240
  C     -426.449     693.759     -79.327
  O     -427.315     694.776     -79.828
  C     -425.266     693.422     -80.239
  N     -427.606     693.483     -84.733
  C     -427.228     694.535     -83.916
  N     -427.576     695.774     -84.338
  N     -426.573     694.386     -82.792
  C     -426.263     693.094     -82.512
  C     -426.585     691.970     -83.238
  C     -427.363     692.146     -84.459
  O     -427.803     691.245     -85.173
  N     -426.083     690.835     -82.646
  C     -425.480     691.277     -81.564
  N     -425.600     692.626     -81.409
  O     -422.000     693.383     -76.152
  O     -422.936     693.918     -73.838
  H     -428.054     694.853     -79.187
  H     -421.534     694.210     -75.909
  H     -428.133     693.650     -85.570
  H     -424.968     690.639     -80.839
  H     -424.773     694.332     -80.584
  H     -427.053     692.870     -79.098
  H     -428.034     695.961     -85.202
  H     -426.319     694.097     -77.163
  H     -427.275     696.565     -83.760
  H     -423.540     693.955     -77.955
  H     -425.308     691.612     -77.137
  H     -423.528     691.618     -77.120
  P     -426.084     696.644     -77.293
  C     -427.575     697.551     -79.230
  O     -427.516     696.908     -77.968
  O     -425.274     697.998     -77.543
  O     -426.097     696.248     -75.848
  H     -425.364     698.597     -76.782
  H     -426.584     697.658     -79.686
  H     -428.012     698.547     -79.096
  H     -428.214     696.965     -79.897
  H     -423.020     689.589     -73.974
  H     -424.245     690.417     -74.906
  H     -423.922     690.904     -73.259

 3  4  5  6  7  8  9  10  11  12  23  26  30  31  33  0
 6-311+G(2d,p)
 ****
 35  36  37  38 0
 6-311+G(2d,p)
 ****
 1  2  13  14  15  16  17  18  19  20  21  22  24  25  27  28  29 0
 3-21G
 ****
 32  34  39  40  41  42  43  44  45  46  47  48  49 0
 3-21G
 ****


