%nproc=1
%NoSave
%Mem=1900MB
#P OB98/GEN NMR

erre ene a

0 1
  C       -6.510     -25.185     -13.394
  O       -6.438     -24.466     -14.607
  H       -7.436     -25.765     -13.383
  H       -6.518     -24.494     -12.547
  H       -5.662     -25.870     -13.307
  P       -5.124     -23.576     -14.842
  C       -2.651     -24.134     -15.420
  O       -3.893     -24.603     -14.909
  C       -1.504     -24.705     -14.592
  O       -1.617     -24.240     -13.228
  C       -1.490     -26.227     -14.507
  O       -0.944     -26.819     -15.672
  C       -0.643     -26.445     -13.260
  O        0.758     -26.394     -13.559
  C       -1.034     -25.253     -12.379
  N       -1.507     -26.202      -7.394
  C       -0.461     -25.784      -8.139
  N       -0.422     -25.536      -9.465
  C       -1.626     -25.753     -10.020
  C       -2.780     -26.186      -9.391
  C       -2.695     -26.413      -8.008
  N       -3.749     -26.873      -7.257
  N       -3.803     -26.336     -10.306
  C       -3.279     -25.991     -11.464
  N       -1.969     -25.627     -11.338
  O       -4.931     -22.845     -13.430
  O       -5.206     -22.604     -15.970
  H        1.226     -26.416     -12.703
  H       -5.348     -21.964     -13.459
  H        0.470     -25.633      -7.599
  H       -3.801     -25.997     -12.414
  H       -0.166     -24.800     -11.886
  H       -0.843     -27.419     -12.810
  H       -2.502     -26.605     -14.318
  H       -0.558     -24.330     -15.002
  H       -2.627     -23.041     -15.364
  H       -2.561     -24.440     -16.468
  H       -3.609     -27.036      -6.273
  H       -4.607     -27.135      -7.723
  P       -1.280     -28.354     -15.979
  C       -3.472     -29.683     -16.411
  O       -2.865     -28.546     -15.820
  O       -0.675     -29.122     -14.713
  O       -0.723     -28.868     -17.264
  H        0.190     -29.515     -14.935
  H       -4.524     -29.667     -16.217
  H       -3.046     -30.572     -15.994
  H       -3.304     -29.669     -17.468

 6  7  8  9  10  11  12  13  14  15  25  28  32  33  34  35 0
 6-311+G(2d,p)
 ****
 36  37  40 0
 6-311+G(2d,p)
 ****
 1  2  3  4  5  16  17  18  19  20  21  22  23  24 0
 3-21G
 ****
 26  27  29  30  31  38  39 41  42  43  44  45  46  47  48 0
 3-21G
 ****


