%nproc=1
%NoSave
%Mem=1900MB
#P OB98/GEN NMR

erre ene a

0 1
  C     -423.537    -559.734      60.923
  O     -424.415    -560.221      59.929
  H     -424.088    -559.041      61.567
  H     -422.703    -559.193      60.470
  H     -423.163    -560.556      61.540
  P     -423.847    -561.259      58.848
  C     -421.916    -561.068      57.128
  O     -422.842    -560.376      57.943
  C     -420.854    -560.103      56.603
  O     -420.027    -559.600      57.675
  C     -419.864    -560.714      55.615
  O     -420.407    -560.949      54.324
  C     -418.809    -559.623      55.599
  O     -419.263    -558.510      54.821
  C     -418.726    -559.266      57.106
  N     -417.664    -559.991      57.803
  C     -416.499    -559.276      58.090
  O     -416.392    -558.089      57.749
  N     -415.460    -559.913      58.725
  C     -415.571    -561.173      59.021
  N     -414.504    -561.763      59.646
  C     -416.765    -561.975      58.729
  C     -417.770    -561.330      58.122
  O     -424.868    -562.040      58.088
  O     -422.817    -562.171      59.666
  H     -418.646    -557.777      54.992
  H     -422.444    -562.841      59.041
  H     -416.800    -563.027      58.969
  H     -418.682    -561.853      57.869
  H     -418.573    -558.191      57.239
  H     -417.855    -559.951      55.166
  H     -419.420    -561.631      56.020
  H     -421.380    -559.242      56.167
  H     -413.698    -561.183      59.836
  H     -422.467    -561.532      56.301
  H     -414.470    -562.750      59.849
  H     -421.419    -561.846      57.708
  P     -419.920    -562.269      53.561
  C     -417.614    -563.018      52.594
  O     -418.452    -561.956      53.008
  O     -420.840    -562.287      52.250
  O     -420.028    -563.539      54.344
  H     -421.597    -562.896      52.361
  H     -416.678    -562.623      52.257
  H     -418.084    -563.553      51.795
  H     -417.446    -563.681      53.417

 6  7  8  9  10  11  12  13  14  15  16  26  30  31  32  33  35 0
 6-311+G(2d,p)
 ****
 37  38 0
 6-311+G(2d,p)
 ****
 1  2  3  4  5  17  18  19  20  21  22  23  24  25 0
 3-21G
 ****
 27  28  29  34  36  39  40  41  42  43  44  45  46 0
 3-21G
 ****


