%nproc=1
%NoSave
%Mem=1900MB
#P OB98/GEN NMR

erre ene a

0 1
  C     -444.797      49.419     -81.739
  O     -444.359      50.741     -81.986
  P     -443.192      51.044     -83.040
  C     -444.786      51.343     -85.026
  O     -443.707      50.591     -84.489
  C     -444.312      52.308     -86.115
  O     -443.478      51.584     -87.065
  C     -445.450      52.974     -86.904
  O     -445.043      54.323     -87.170
  C     -445.498      52.169     -88.187
  O     -446.108      52.883     -89.253
  C     -444.011      51.848     -88.381
  N     -443.798      50.717     -89.272
  C     -443.868      50.973     -90.646
  O     -444.226      52.079     -91.051
  N     -443.540      49.963     -91.520
  C     -443.353      48.764     -91.066
  N     -442.963      47.810     -91.952
  C     -443.518      48.405     -89.641
  C     -443.696      49.430     -88.805
  O     -441.849      50.516     -82.664
  O     -443.170      52.644     -83.149
  H     -442.257      52.962     -82.990
  H     -446.147      52.302     -90.044
  H     -443.474      47.376     -89.329
  H     -443.803      49.274     -87.737
  H     -443.476      52.719     -88.777
  H     -446.074      51.246     -88.021
  H     -446.397      52.982     -86.353
  H     -443.679      53.067     -85.646
  H     -442.817      48.096     -92.915
  H     -445.237      51.923     -84.213
  H     -442.492      46.952     -91.658
  H     -445.552      50.666     -85.418
  P     -446.183      55.450     -87.309
  C     -446.040      55.809     -84.743
  O     -446.871      55.632     -85.872
  O     -447.318      54.655     -88.124
  O     -445.807      56.691     -88.045
  H     -447.868      55.299     -88.611
  H     -446.671      55.847     -83.847
  H     -445.486      56.749     -84.820
  H     -445.340      54.971     -84.641
  H     -445.578      49.433     -81.007
  H     -443.978      48.834     -81.376
  H     -445.167      48.990     -82.647

 3  4  5  6  7  8  9  10  11  12  13  24  27  28  29  30  32 0
 6-311+G(2d,p)
 ****
 34  35 0
 6-311+G(2d,p)
 ****
 1  2  14  15  16  17  18  19  20  21  22  23  25  26 0
 3-21G
 ****
 31  33  36  37  38  39  40  41  42  43  44  45  46 0
 3-21G
 ****


