%nproc=1
%NoSave
%Mem=1900MB
#P OB98/GEN NMR

erre ene a

0 1
  C      108.530    -118.569    -238.203
  O      108.289    -117.882    -236.989
  H      109.164    -119.438    -237.998
  H      109.049    -117.911    -238.906
  H      107.588    -118.913    -238.642
  P      107.191    -116.717    -237.035
  C      108.976    -114.795    -237.166
  O      107.868    -115.454    -237.770
  C      108.782    -113.282    -237.221
  O      108.764    -112.818    -238.584
  C      107.456    -112.803    -236.656
  O      107.399    -112.885    -235.248
  C      107.424    -111.375    -237.187
  O      108.148    -110.478    -236.336
  C      108.122    -111.516    -238.558
  N      107.195    -111.333    -239.659
  C      106.353    -110.218    -239.555
  O      106.443    -109.460    -238.583
  N      105.410    -110.011    -240.525
  C      105.295    -110.856    -241.504
  N      104.318    -110.614    -242.415
  C      106.163    -112.045    -241.654
  C      107.085    -112.221    -240.706
  O      107.116    -116.253    -235.506
  O      105.878    -117.116    -237.616
  H      108.071    -109.589    -236.742
  H      107.987    -116.086    -235.104
  H      106.035    -112.711    -242.492
  H      107.761    -113.063    -240.734
  H      108.929    -110.774    -238.659
  H      106.398    -110.993    -237.251
  H      106.624    -113.356    -237.119
  H      109.631    -112.810    -236.706
  H      103.710    -109.821    -242.246
  H      109.910    -115.077    -237.666
  H      104.086    -111.242    -243.172
  H      109.041    -115.135    -236.129
  P      106.027    -113.202    -234.483
  C      105.613    -110.769    -233.732
  O      105.154    -111.850    -234.534
  O      106.176    -113.785    -233.123
  O      105.245    -114.140    -235.520
  H      105.067    -113.736    -236.387
  H      104.955    -109.933    -233.850
  H      106.600    -110.492    -234.038
  H      105.629    -111.069    -232.705

 6  7  8  9  10  11  12  13  14  15  16  26  30  31  32  33  35 0
 6-311+G(2d,p)
 ****
 37  38 0
 6-311+G(2d,p)
 ****
 1  2  3  4  5  17  18  19  20  21  22  23  24  25 0
 3-21G
 ****
 27  28  29  34  36  39  40  41  42  43  44  45  46 0
 3-21G
 ****


