%nproc=1
%NoSave
%Mem=1900MB
#P OB98/GEN NMR

erre ene a

0 1
  C      -55.258     -73.362     134.300
  O      -54.171     -73.748     135.117
  H      -55.495     -72.315     134.503
  H      -56.133     -73.972     134.535
  H      -55.000     -73.470     133.244
  P      -53.600     -75.233     134.910
  C      -51.599     -76.199     133.572
  O      -52.550     -75.151     133.694
  C      -50.837     -76.084     132.252
  O      -51.775     -76.262     131.150
  C      -50.135     -74.732     132.043
  O      -48.914     -74.972     131.332
  C      -51.087     -73.995     131.114
  O      -50.447     -72.944     130.395
  C      -51.569     -75.157     130.245
  N      -53.518     -71.996     126.851
  C      -52.231     -72.103     127.341
  N      -51.320     -71.233     126.855
  N      -51.867     -72.986     128.233
  C      -52.875     -73.813     128.609
  C      -54.188     -73.807     128.202
  C      -54.584     -72.805     127.234
  O      -55.712     -72.649     126.776
  N      -54.905     -74.792     128.838
  C      -54.025     -75.388     129.623
  N      -52.780     -74.831     129.520
  O      -54.852     -76.004     134.277
  O      -53.096     -75.903     136.144
  H      -50.099     -72.302     131.047
  H      -55.368     -76.443     134.979
  H      -53.747     -71.288     126.174
  H      -54.237     -76.219     130.285
  H      -50.823     -75.458     129.500
  H      -51.917     -73.563     131.687
  H      -51.515     -70.559     126.132
  H      -49.924     -74.184     132.967
  H      -50.360     -71.325     127.169
  H      -50.121     -76.909     132.190
  H      -52.124     -77.160     133.601
  H      -50.899     -76.148     134.411
  P      -47.664     -75.544     132.152
  C      -47.429     -77.797     133.434
  O      -47.808     -77.139     132.233
  O      -47.983     -75.083     133.655
  O      -46.339     -75.034     131.689
  H      -47.152     -74.976     134.151
  H      -47.584     -78.850     133.328
  H      -48.022     -77.429     134.245
  H      -46.395     -77.607     133.634

 6  7  8  9  10  11  12  13  14  15  26  29  33  34 0
 6-311+G(2d,p)
 ****
 36  38  39  40  41 0
 6-311+G(2d,p)
 ****
 1  2  3  4  5  16  17  18  19  20  21  22  23  24  25 0
 3-21G
 ****
 27  28  30  31  32  35  37  42  43  44  45  46  47 0
 3-21G
 ****
 48  49 0
 3-21G
 ****


