%nproc=1
%NoSave
%Mem=1900MB
#P OB98/GEN NMR

erre ene a

0 1
  C       66.675      90.625     -17.354
  O       66.745      90.347     -15.946
  P       65.400      89.952     -15.158
  C       66.144      87.492     -14.666
  O       65.193      88.364     -15.259
  C       65.634      86.049     -14.710
  O       65.784      85.498     -16.038
  C       66.383      85.090     -13.796
  O       65.998      85.240     -12.440
  C       65.995      83.742     -14.391
  O       64.711      83.315     -13.903
  C       65.924      84.068     -15.896
  N       67.081      83.569     -16.634
  C       67.114      82.202     -16.883
  O       66.262      81.420     -16.465
  N       68.186      81.752     -17.603
  C       69.241      82.508     -18.032
  O       70.183      82.042     -18.659
  C       69.190      83.932     -17.669
  C       68.133      84.387     -16.993
  O       64.262      90.497     -16.148
  O       65.247      90.548     -13.798
  H       64.112      84.082     -13.985
  H       63.464      90.724     -15.635
  H       68.215      80.768     -17.821
  H       70.017      84.561     -17.969
  H       68.080      85.437     -16.719
  H       65.018      83.632     -16.334
  H       66.711      82.953     -14.141
  H       67.464      85.234     -13.910
  H       64.564      86.058     -14.465
  H       66.300      87.785     -13.624
  H       67.094      87.581     -15.202
  P       66.752      86.381     -11.598
  C       64.490      87.677     -11.410
  O       65.853      87.696     -11.771
  O       68.041      86.633     -12.515
  O       67.057      85.969     -10.197
  H       67.845      86.518     -13.461
  H       64.309      87.015     -10.559
  H       63.895      87.343     -12.264
  H       64.184      88.691     -11.138
  H       67.651      90.869     -17.718
  H       66.015      91.450     -17.522
  H       66.307      89.763     -17.870

 3  4  5  6  7  8  9  10  11  12  13  23  28  29  30  31  32 0
 6-311+G(2d,p)
 ****
 33  34 0
 6-311+G(2d,p)
 ****
 1  2  14  15  16  17  18  19  20  21  22  24  25  26 0
 3-21G
 ****
 27  35  36  37  38  39  40  41  42  43  44  45 0
 3-21G
 ****


