%nproc=1
%NoSave
%Mem=1900MB
#P OB98/GEN NMR

erre ene a

0 1
  C     -259.894      63.329      62.166
  O     -261.156      62.995      61.622
  H     -259.961      63.297      63.255
  H     -259.613      64.340      61.862
  H     -259.131      62.615      61.839
  P     -261.233      62.752      60.039
  C     -263.622      63.569      59.413
  O     -262.777      62.463      59.696
  C     -265.026      63.308      59.959
  O     -264.966      63.298      61.413
  C     -266.061      64.365      59.551
  O     -267.321      63.711      59.345
  C     -266.152      65.248      60.783
  O     -267.374      65.969      60.884
  C     -265.973      64.209      61.895
  N     -265.574      64.810      63.166
  C     -266.486      65.662      63.784
  O     -267.629      65.875      63.384
  N     -266.033      66.285      64.920
  C     -264.789      66.165      65.466
  O     -264.438      66.766      66.473
  C     -263.870      65.260      64.763
  C     -264.297      64.637      63.661
  O     -260.540      61.320      59.861
  O     -260.596      63.805      59.195
  H     -259.580      61.420      59.727
  H     -267.498      66.455      60.043
  H     -266.681      66.906      65.380
  H     -262.867      65.145      65.162
  H     -263.635      63.979      63.106
  H     -266.895      63.633      62.034
  H     -265.330      65.969      60.787
  H     -265.791      64.935      58.656
  H     -265.345      62.306      59.644
  H     -263.680      63.714      58.330
  H     -263.197      64.472      59.868
  P     -268.126      64.065      58.002
  C     -270.230      64.758      59.403
  O     -269.677      63.936      58.384
  O     -267.822      62.771      57.114
  O     -267.707      65.364      57.398
  H     -267.767      61.953      57.635
  H     -271.270      64.533      59.518
  H     -270.116      65.787      59.132
  H     -269.721      64.573      60.326

 6  7  8  9  10  11  12  13  14  15  16  27  31  32  33  34  35 0
 6-311+G(2d,p)
 ****
 36  37 0
 6-311+G(2d,p)
 ****
 1  2  3  4  5  17  18  19  20  21  22  23  24  25 0
 3-21G
 ****
 26  28  29  30  38  39  40  41  42  43  44  45 0
 3-21G
 ****


