%nproc=1
%NoSave
%Mem=1900MB
#P OB98/GEN NMR

erre ene a

0 1
  C      445.568    -208.516    -196.804
  O      446.065    -208.653    -198.121
  H      444.492    -208.316    -196.826
  H      445.742    -209.449    -196.264
  H      446.089    -207.704    -196.286
  P      445.930    -207.372    -199.075
  C      448.363    -206.777    -199.753
  O      447.277    -206.521    -198.876
  C      449.157    -205.495    -199.996
  O      448.272    -204.440    -200.421
  C      449.883    -204.955    -198.771
  O      451.101    -205.645    -198.531
  C      450.134    -203.518    -199.200
  O      451.265    -203.468    -200.092
  C      448.844    -203.185    -199.964
  N      447.369    -198.624    -198.171
  C      448.358    -198.982    -199.019
  N      448.675    -200.215    -199.467
  C      447.835    -201.132    -198.960
  C      446.770    -200.919    -198.103
  C      446.547    -199.592    -197.694
  N      445.573    -199.248    -196.769
  N      446.146    -202.109    -197.787
  C      446.839    -203.029    -198.429
  N      447.863    -202.488    -199.157
  O      444.810    -206.494    -198.336
  O      445.558    -207.668    -200.489
  H      451.434    -202.525    -200.274
  H      443.946    -206.664    -198.752
  H      448.978    -198.172    -199.386
  H      446.637    -204.092    -198.396
  H      449.036    -202.576    -200.855
  H      450.354    -202.848    -198.365
  H      449.238    -204.955    -197.886
  H      449.865    -205.689    -200.813
  H      447.980    -207.153    -200.708
  H      445.806    -198.420    -196.227
  H      445.182    -200.031    -196.266
  H      449.005    -207.541    -199.302
  P      451.729    -205.565    -197.055
  C      451.653    -207.990    -196.165
  O      451.020    -206.720    -196.194
  O      451.093    -204.213    -196.478
  O      453.215    -205.530    -196.998
  H      451.808    -203.612    -196.190
  H      451.079    -208.661    -195.560
  H      452.635    -207.890    -195.753
  H      451.721    -208.377    -197.160

 6  7  8  9  10  11  12  13  14  15  25  28  32  33  34  35 0
 6-311+G(2d,p)
 ****
 36  39  40 0
 6-311+G(2d,p)
 ****
 1  2  3  4  5  16  17  18  19  20  21  22  23  24 0
 3-21G
 ****
 26  27  29  30  31  37  38  41  42  43  44  45  46  47  48 0
 3-21G
 ****


