%nproc=1
%NoSave
%Mem=1900MB
#P OB98/GEN NMR

erre ene a

0 1
  C       88.121    -109.919      76.490
  O       88.466    -109.426      77.765
  H       88.952    -110.517      76.107
  H       87.946    -109.087      75.802
  H       87.229    -110.549      76.547
  P       87.330    -108.647      78.589
  C       86.537    -110.207      80.506
  O       87.420    -109.171      80.105
  C       86.406    -110.235      82.030
  O       85.241    -111.024      82.385
  C       87.620    -110.841      82.740
  O       87.859    -110.107      83.943
  C       87.166    -112.247      83.087
  O       87.870    -112.792      84.204
  C       85.663    -112.042      83.312
  N       84.919    -113.285      83.127
  C       84.688    -114.055      84.270
  O       85.111    -113.681      85.366
  N       84.037    -115.254      84.142
  C       83.721    -115.690      82.963
  N       83.103    -116.901      82.898
  C       84.006    -114.945      81.722
  C       84.593    -113.758      81.877
  O       85.971    -109.301      78.056
  O       87.342    -107.162      78.446
  H       87.368    -113.568      84.535
  H       85.241    -108.654      78.064
  H       83.746    -115.361      80.760
  H       84.849    -113.142      81.023
  H       85.472    -111.666      84.327
  H       87.336    -112.909      82.230
  H       88.524    -110.839      82.126
  H       86.219    -109.213      82.380
  H       82.941    -117.391      83.771
  H       86.937    -111.168      80.167
  H       82.854    -117.357      82.034
  H       85.557    -110.049      80.043
  P       89.224    -109.269      84.016
  C       88.931    -107.505      82.130
  O       88.919    -107.773      83.527
  O       90.101    -109.886      82.829
  O       89.924    -109.375      85.332
  H       90.829    -110.421      83.196
  H       88.712    -106.471      81.963
  H       88.193    -108.109      81.645
  H       89.897    -107.733      81.731

 6  7  8  9  10  11  12  13  14  15  16  26  30  31  32  33  35 0
 6-311+G(2d,p)
 ****
 37  38 0
 6-311+G(2d,p)
 ****
 1  2  3  4  5  17  18  19  20  21  22  23  24  25 0
 3-21G
 ****
 27  28  29  34  36  39  40  41  42  43  44  45  46 0
 3-21G
 ****


