%nproc=1
%NoSave
%Mem=1900MB
#P OB98/GEN NMR

erre ene a

0 1
  C      225.698       6.146    -114.294
  O      225.121       7.307    -113.731
  H      225.952       6.348    -115.339
  H      224.980       5.320    -114.264
  H      226.610       5.861    -113.760
  P      224.901       7.376    -112.143
  C      222.569       6.275    -112.239
  O      223.905       6.173    -111.765
  C      221.583       5.713    -111.209
  O      221.716       4.256    -111.188
  C      221.825       6.216    -109.768
  O      220.550       6.271    -109.116
  C      222.677       5.090    -109.206
  O      222.769       5.151    -107.807
  C      221.952       3.883    -109.814
  N      222.713       2.640    -109.718
  C      222.971       2.144    -108.442
  O      222.585       2.680    -107.407
  N      223.718       0.995    -108.393
  C      224.221       0.312    -109.464
  O      224.862      -0.728    -109.361
  C      223.936       0.901    -110.786
  C      223.207       2.020    -110.853
  O      224.517       8.712    -111.599
  O      226.305       6.877    -111.547
  H      226.848       7.649    -111.302
  H      221.879       5.097    -107.402
  H      223.916       0.620    -107.477
  H      224.336       0.398    -111.656
  H      222.976       2.485    -111.808
  H      220.971       3.742    -109.345
  H      223.700       5.159    -109.593
  H      222.301       7.201    -109.735
  H      220.561       5.933    -111.540
  H      222.495       5.707    -113.174
  H      222.337       7.328    -112.444
  P      219.910       7.631    -108.543
  C      219.846       7.194    -106.002
  O      220.473       7.897    -107.062
  O      218.417       7.670    -108.623
  O      220.554       8.810    -109.419
  H      219.886       9.513    -109.552
  H      220.311       7.458    -105.075
  H      219.946       6.141    -106.164
  H      218.808       7.453    -105.967

 6  7  8  9  10  11  12  13  14  15  16  27  31  32  33  34  35 0
 6-311+G(2d,p)
 ****
 36  37 0
 6-311+G(2d,p)
 ****
 1  2  3  4  5  17  18  19  20  21  22  23  24  25 0
 3-21G
 ****
 26  28  29  30  38  39  40  41  42  43  44  45 0
 3-21G
 ****


