%nproc=1
%NoSave
%Mem=1900MB
#P OB98/GEN NMR

erre ene a

0 1
  C       99.951    -381.637    -472.791
  O       99.793    -382.305    -474.033
  P       98.656    -383.421    -474.233
  C       98.524    -382.665    -476.701
  O       98.674    -383.756    -475.800
  C       99.158    -383.012    -478.044
  O       98.552    -384.208    -478.574
  C       98.984    -381.947    -479.118
  O       99.869    -380.855    -478.907
  C       99.240    -382.764    -480.379
  O      100.652    -382.939    -480.583
  C       98.591    -384.117    -480.018
  N       97.261    -384.277    -480.593
  C       97.204    -384.667    -481.934
  O       98.231    -384.868    -482.580
  N       95.973    -384.856    -482.512
  C       94.894    -384.652    -481.822
  N       93.704    -384.922    -482.427
  C       94.907    -384.188    -480.422
  C       96.111    -384.029    -479.875
  O       97.316    -383.056    -473.691
  O       99.274    -384.743    -473.591
  H      101.016    -382.058    -480.796
  H       99.089    -384.839    -472.623
  H       93.983    -384.019    -479.889
  H       96.209    -383.710    -478.847
  H       99.225    -384.942    -480.358
  H       98.826    -382.310    -481.286
  H       97.954    -381.575    -479.126
  H      100.226    -383.215    -477.878
  H       93.748    -385.401    -483.317
  H       99.031    -381.792    -476.279
  H       92.861    -385.066    -481.886
  H       97.460    -382.436    -476.815
  P       99.247    -379.380    -478.943
  C      100.942    -378.737    -477.091
  O      100.382    -378.412    -478.348
  O       98.124    -379.425    -477.805
  O       98.691    -378.977    -480.269
  H       97.240    -379.533    -478.203
  H      101.841    -378.133    -476.943
  H      101.216    -379.796    -477.047
  H      100.229    -378.504    -476.293
  H      100.757    -380.936    -472.863
  H      100.168    -382.353    -472.026
  H       99.048    -381.118    -472.548

 3  4  5  6  7  8  9  10  11  12  13  23  27  28  29  30  32 0
 6-311+G(2d,p)
 ****
 34  35 0
 6-311+G(2d,p)
 ****
 1  2  14  15  16  17  18  19  20  21  22  24  25  26 0
 3-21G
 ****
 31  33  36  37  38  39  40  41  42  43  44  45  46 0
 3-21G
 ****


