%nproc=1
%NoSave
%Mem=1900MB
#P OB98/GEN NMR

erre ene a

0 1
  C      -58.678      45.560     138.960
  O      -58.832      46.291     140.162
  H      -59.436      45.892     138.247
  H      -58.816      44.491     139.150
  H      -57.687      45.739     138.535
  P      -57.842      45.901     141.363
  C      -59.861      46.187     142.962
  O      -58.772      45.371     142.560
  C      -60.245      45.890     144.410
  O      -61.091      46.935     144.938
  C      -60.993      44.577     144.605
  O      -60.092      43.488     144.692
  C      -61.723      44.843     145.912
  O      -60.842      44.660     147.043
  C      -62.116      46.320     145.766
  N      -67.031      45.221     146.124
  C      -65.957      44.746     146.848
  N      -66.225      43.817     147.794
  N      -64.724      45.133     146.660
  C      -64.594      46.021     145.645
  C      -65.578      46.566     144.852
  C      -66.945      46.166     145.109
  O      -67.947      46.612     144.558
  N      -65.051      47.447     143.941
  C      -63.751      47.408     144.161
  N      -63.423      46.553     145.182
  O      -57.328      47.322     141.898
  O      -56.698      45.020     140.990
  H      -61.349      44.787     147.864
  H      -56.388      47.240     142.148
  H      -67.961      44.908     146.334
  H      -63.012      47.982     143.620
  H      -62.109      46.843     146.730
  H      -62.556      44.154     146.057
  H      -67.078      43.279     147.786
  H      -61.728      44.419     143.806
  H      -65.427      43.418     148.272
  H      -59.321      45.898     145.003
  H      -60.717      45.984     142.311
  H      -59.577      47.241     142.864
  P      -60.572      42.060     144.145
  C      -59.944      40.854     146.356
  O      -60.960      41.151     145.410
  O      -59.208      41.404     143.617
  O      -61.593      42.120     143.060
  H      -59.190      41.425     142.641
  H      -60.350      40.245     147.136
  H      -59.568      41.765     146.774
  H      -59.148      40.329     145.871

 6  7  8  9  10  11  12  13  14  15  26  29  33  34 0
 6-311+G(2d,p)
 ****
 36  38  39  40  41 0
 6-311+G(2d,p)
 ****
 1  2  3  4  5  16  17  18  19  20  21  22  23  24  25 0
 3-21G
 ****
 27  28  30  31  32  35  37  42  43  44  45  46  47 0
 3-21G
 ****
 48  49 0
 3-21G
 ****


