%nproc=1
%NoSave
%Mem=1900MB
#P OB98/GEN NMR

erre ene a

0 1
  C     -429.233     267.228     105.643
  O     -430.095     266.213     106.127
  P     -431.065     266.580     107.349
  C     -432.946     267.442     105.763
  O     -432.567     266.540     106.793
  C     -434.469     267.423     105.594
  O     -434.951     266.064     105.549
  C     -435.216     268.086     106.742
  O     -435.193     269.500     106.630
  C     -436.606     267.489     106.593
  O     -437.371     268.201     105.608
  C     -436.286     266.061     106.105
  N     -436.431     265.060     107.158
  C     -437.452     264.131     106.976
  O     -438.208     264.149     106.003
  N     -437.600     263.202     107.968
  C     -436.880     263.146     109.126
  O     -437.099     262.321     110.009
  C     -435.836     264.172     109.278
  C     -435.667     265.073     108.306
  O     -430.794     268.137     107.600
  O     -430.841     265.770     108.582
  H     -438.274     267.835     105.635
  H     -430.852     268.334     108.554
  H     -438.314     262.508     107.844
  H     -435.248     264.159     110.186
  H     -434.914     265.844     108.404
  H     -436.954     265.785     105.277
  H     -437.175     267.524     107.526
  H     -434.790     267.767     107.702
  H     -434.716     267.909     104.643
  H     -432.467     267.146     104.827
  H     -432.601     268.448     106.022
  P     -435.709     270.341     107.896
  C     -433.297     271.068     108.583
  O     -434.581     271.451     108.146
  O     -435.510     269.268     109.067
  O     -437.106     270.838     107.737
  H     -434.749     268.685     108.904
  H     -432.992     270.111     108.147
  H     -433.292     270.987     109.672
  H     -432.577     271.835     108.284
  H     -428.649     266.843     104.833
  H     -428.584     267.550     106.430
  H     -429.816     268.057     105.300

 3  4  5  6  7  8  9  10  11  12  13  23  28  29  30  31  32 0
 6-311+G(2d,p)
 ****
 33  34 0
 6-311+G(2d,p)
 ****
 1  2  14  15  16  17  18  19  20  21  22  24  25  26 0
 3-21G
 ****
 27  35  36  37  38  39  40  41  42  43  44  45 0
 3-21G
 ****


