%nproc=1
%NoSave
%Mem=1900MB
#P OB98/GEN NMR

erre ene a

0 1
  C      475.350     370.800      24.946
  O      474.841     370.113      23.818
  H      475.128     370.229      25.850
  H      476.436     370.887      24.846
  H      474.919     371.801      25.021
  P      473.252     370.132      23.602
  C      473.128     370.082      21.009
  O      472.973     369.358      22.221
  C      474.006     369.307      20.025
  O      475.378     369.338      20.507
  C      473.603     367.832      19.851
  O      473.772     367.479      18.476
  C      474.637     367.088      20.681
  O      474.837     365.749      20.240
  C      475.862     367.985      20.506
  N      479.565     364.874      22.089
  C      478.968     365.030      20.888
  N      478.019     365.925      20.533
  C      477.746     366.756      21.554
  C      478.281     366.727      22.836
  C      479.220     365.716      23.095
  N      479.786     365.508      24.337
  N      477.706     367.715      23.615
  C      476.828     368.305      22.828
  N      476.816     367.759      21.574
  O      472.972     371.667      23.236
  O      472.440     369.677      24.767
  H      475.161     365.765      19.321
  H      472.833     372.179      24.056
  H      479.283     364.338      20.112
  H      476.158     369.106      23.121
  H      476.384     367.804      19.554
  H      474.315     367.064      21.727
  H      472.577     367.609      20.167
  H      473.994     369.826      19.061
  H      473.606     371.045      21.228
  H      480.361     364.693      24.453
  H      479.455     366.053      25.118
  H      472.140     370.272      20.573
  P      472.523     366.803      17.728
  C      471.877     368.755      16.126
  O      472.403     367.435      16.262
  O      471.262     367.409      18.499
  O      472.532     365.306      17.770
  H      470.537     366.761      18.526
  H      471.863     369.028      15.092
  H      472.493     369.442      16.668
  H      470.881     368.784      16.516

 6  7  8  9  10  11  12  13  14  15  25  28  32  33  34  35 0
 6-311+G(2d,p)
 ****
 36  39  40 0
 6-311+G(2d,p)
 ****
 1  2  3  4  5  16  17  18  19  20  21  22  23  24 0
 3-21G
 ****
 26  27  29  30  31  37  38  41  42  43  44  45  46  47 0
 3-21G
 ****
 48 0
 3-21G
 ****


