%nproc=1
%NoSave
%Mem=1900MB
#P OB98/GEN NMR

erre ene a

0 1
  C     -371.543    -502.631     270.305
  O     -371.489    -504.042     270.072
  P     -372.876    -504.837     269.975
  C     -372.946    -506.134     272.230
  O     -373.449    -505.058     271.468
  C     -373.646    -506.256     273.594
  O     -375.034    -506.675     273.412
  C     -373.005    -507.272     274.541
  O     -373.225    -506.840     275.880
  C     -373.829    -508.526     274.286
  O     -373.689    -509.472     275.350
  C     -375.224    -507.909     274.131
  N     -378.909    -511.310     274.672
  C     -378.163    -510.639     275.624
  N     -378.460    -510.899     276.921
  N     -377.197    -509.805     275.342
  C     -377.038    -509.630     274.002
  C     -377.702    -510.223     272.967
  C     -378.738    -511.176     273.289
  O     -379.419    -511.811     272.502
  N     -377.227    -509.814     271.744
  C     -376.283    -508.945     272.053
  N     -376.135    -508.786     273.391
  O     -372.415    -506.321     269.533
  O     -373.843    -504.266     268.994
  H     -374.119    -509.077     276.142
  H     -372.655    -506.483     268.613
  H     -379.617    -511.961     274.953
  H     -375.646    -508.425     271.335
  H     -375.683    -507.676     275.085
  H     -373.505    -509.010     273.358
  H     -379.225    -511.497     277.211
  H     -371.934    -507.435     274.383
  H     -377.945    -510.395     277.637
  H     -373.676    -505.257     274.055
  H     -371.856    -506.000     272.404
  H     -373.033    -507.058     271.652
  P     -371.992    -506.154     276.629
  C     -371.198    -508.414     277.639
  O     -370.879    -507.292     276.821
  O     -372.554    -505.920     278.133
  O     -371.527    -504.886     276.016
  H     -372.078    -505.182     278.557
  H     -371.414    -509.282     276.985
  H     -372.045    -508.214     278.280
  H     -370.311    -508.646     278.248
  H     -370.549    -502.238     270.346
  H     -372.040    -502.442     271.234
  H     -372.081    -502.159     269.510

 3  4  5  6  7  8  9  10  11  12  23  26  30  31 0
 6-311+G(2d,p)
 ****
 33  35  36  37  38 0
 6-311+G(2d,p)
 ****
 1  2  13  14  15  16  17  18  19  20  21  22  24  25 0
 3-21G
 ****
 27  28  29  32  34  39  40  41  42  43  44  45  46  47  48  49 0
 3-21G
 ****


