%nproc=1
%NoSave
%Mem=1900MB
#P OB98/GEN NMR

erre ene a

0 1
  C      132.986    -133.806     -35.739
  O      132.297    -133.683     -36.973
  H      132.831    -134.817     -35.351
  H      132.584    -133.086     -35.024
  H      134.059    -133.639     -35.879
  P      132.656    -132.409     -37.879
  C      131.653    -130.853     -36.055
  O      131.657    -131.232     -37.425
  C      130.252    -130.417     -35.630
  O      130.214    -130.155     -34.207
  C      129.755    -129.147     -36.317
  O      129.197    -129.428     -37.595
  C      128.672    -128.705     -35.339
  O      127.488    -129.515     -35.519
  C      129.319    -129.025     -33.984
  N      129.307    -125.305     -30.529
  C      128.303    -126.193     -30.887
  N      127.130    -126.064     -30.225
  N      128.437    -127.121     -31.800
  C      129.664    -127.115     -32.388
  C      130.731    -126.283     -32.129
  C      130.573    -125.274     -31.103
  O      131.438    -124.477     -30.744
  N      131.801    -126.581     -32.924
  C      131.380    -127.577     -33.682
  N      130.081    -127.933     -33.400
  O      132.105    -132.835     -39.322
  O      134.102    -132.048     -37.931
  H      127.729    -130.431     -35.282
  H      132.860    -133.109     -39.878
  H      129.147    -124.604     -29.825
  H      131.969    -128.072     -34.441
  H      128.584    -129.338     -33.235
  H      128.372    -127.666     -35.483
  H      126.951    -125.359     -29.528
  H      130.534    -128.373     -36.374
  H      126.380    -126.705     -30.472
  H      129.568    -131.255     -35.821
  H      132.350    -130.021     -35.917
  H      131.978    -131.703     -35.452
  P      129.686    -128.537     -38.843
  C      128.961    -126.230     -37.918
  O      128.742    -127.235     -38.890
  O      129.196    -129.400     -40.103
  O      131.153    -128.272     -38.906
  H      129.969    -129.763     -40.576
  H      128.266    -125.430     -38.069
  H      129.960    -125.857     -38.009
  H      128.823    -126.643     -36.941

 6  7  8  9  10  11  12  13  14  15  26  29  33  34 0
 6-311+G(2d,p)
 ****
 36  38  39  40  41 0
 6-311+G(2d,p)
 ****
 1  2  3  4  5  16  17  18  19  20  21  22  23  24  25 0
 3-21G
 ****
 27  28  30  31  32  35  37  42  43  44  45  46  47 0
 3-21G
 ****
 48  49 0
 3-21G
 ****


