%nproc=1
%NoSave
%Mem=1900MB
#P OB98/GEN NMR

erre ene a

0 1
  C      -23.182     -44.902     253.930
  O      -22.835     -45.541     255.165
  P      -21.799     -44.800     256.134
  C      -21.924     -43.732     258.503
  O      -22.627     -44.140     257.338
  C      -22.898     -43.155     259.536
  O      -23.457     -41.896     259.099
  C      -24.088     -44.059     259.826
  O      -23.764     -45.067     260.775
  C      -25.067     -43.069     260.438
  O      -24.731     -42.839     261.821
  C      -24.814     -41.806     259.605
  N      -29.420     -40.217     258.246
  C      -28.797     -40.190     259.477
  N      -29.505     -39.656     260.498
  N      -27.591     -40.648     259.692
  C      -26.999     -41.136     258.579
  C      -27.511     -41.218     257.302
  C      -28.852     -40.722     257.082
  O      -29.460     -40.730     256.014
  N      -26.611     -41.784     256.438
  C      -25.550     -42.027     257.180
  N      -25.739     -41.667     258.491
  O      -21.355     -43.524     255.269
  O      -20.625     -45.632     256.531
  H      -23.816     -42.502     261.833
  H      -20.457     -43.248     255.526
  H      -30.354     -39.855     258.137
  H      -24.624     -42.456     256.816
  H      -24.886     -40.889     260.201
  H      -26.097     -43.438     260.419
  H      -30.415     -39.240     260.394
  H      -24.503     -44.479     258.901
  H      -29.051     -39.600     261.401
  H      -22.343     -42.983     260.467
  H      -21.168     -42.984     258.250
  H      -21.374     -44.587     258.904
  P      -24.236     -46.569     260.466
  C      -23.496     -48.368     258.745
  O      -23.462     -47.011     259.135
  O      -25.751     -46.373     259.986
  O      -24.138     -47.505     261.622
  H      -26.284     -47.153     260.236
  H      -23.062     -48.457     257.745
  H      -24.524     -48.741     258.717
  H      -22.903     -48.973     259.439
  H      -23.878     -45.514     253.395
  H      -22.300     -44.765     253.339
  H      -23.626     -43.950     254.133

 3  4  5  6  7  8  9  10  11  12  23  26  30  31 0
 6-311+G(2d,p)
 ****
 33  35  36  37  38 0
 6-311+G(2d,p)
 ****
 1  2  13  14  15  16  17  18  19  20  21  22  24  25 0
 3-21G
 ****
 27  28  29  32  34  39  40  41  42  43  44  45  46  47  48  49 0
 3-21G
 ****


