%nproc=1
%NoSave
%Mem=1900MB
#P OB98/GEN NMR

erre ene a

0 1
  C      162.743      44.676      -9.462
  O      161.586      43.987      -9.901
  P      161.495      42.409      -9.650
  C      162.831      41.823     -11.801
  O      161.622      41.681     -11.075
  C      162.970      40.699     -12.830
  O      164.066      41.010     -13.742
  C      163.265      39.322     -12.216
  O      162.624      38.336     -13.038
  C      164.770      39.211     -12.369
  O      165.243      37.876     -12.290
  C      164.952      39.873     -13.739
  N      166.335      40.265     -14.002
  C      166.948      39.726     -15.129
  O      166.398      38.946     -15.905
  N      168.262      40.065     -15.312
  C      169.030      40.797     -14.454
  O      170.233      40.967     -14.618
  C      168.329      41.340     -13.281
  C      167.035      41.055     -13.112
  O      159.962      42.190      -9.248
  O      162.426      41.888      -8.607
  H      166.212      37.914     -12.187
  H      159.872      42.107      -8.280
  H      168.719      39.692     -16.128
  H      168.903      41.943     -12.590
  H      166.499      41.426     -12.244
  H      164.607      39.198     -14.533
  H      165.260      39.790     -11.577
  H      162.936      39.226     -11.178
  H      162.051      40.660     -13.430
  H      163.674      41.779     -11.109
  H      162.852      42.801     -12.294
  P      161.281      37.651     -12.481
  C      162.361      35.320     -12.005
  O      161.425      36.079     -12.741
  O      160.223      38.130     -13.586
  O      160.926      38.070     -11.091
  H      160.569      38.062     -14.491
  H      162.471      35.694     -10.985
  H      163.330      35.354     -12.509
  H      162.021      34.282     -11.966
  H      162.652      45.715      -9.701
  H      163.605      44.272      -9.950
  H      162.846      44.562      -8.403

 3  4  5  6  7  8  9  10  11  12  13  23  28  29  30  31  32 0
 6-311+G(2d,p)
 ****
 33  34 0
 6-311+G(2d,p)
 ****
 1  2  14  15  16  17  18  19  20  21  22  24  25  26 0
 3-21G
 ****
 27  35  36  37  38  39  40  41  42  43  44  45 0
 3-21G
 ****


