%nproc=1
%NoSave
%Mem=1900MB
#P OB98/GEN NMR

erre ene a

0 1
  C     -141.530     369.243    -123.477
  O     -141.709     370.575    -123.037
  H     -140.615     369.192    -124.073
  H     -142.374     368.935    -124.100
  H     -141.431     368.571    -122.618
  P     -143.022     370.866    -122.158
  C     -143.622     372.849    -123.727
  O     -144.048     371.631    -123.131
  C     -144.008     372.887    -125.202
  O     -143.606     371.665    -125.867
  C     -145.502     373.051    -125.457
  O     -145.889     374.412    -125.378
  C     -145.625     372.489    -126.865
  O     -145.238     373.458    -127.864
  C     -144.630     371.312    -126.832
  N     -147.566     367.551    -128.486
  C     -147.101     368.673    -129.140
  N     -147.529     368.846    -130.415
  N     -146.303     369.555    -128.599
  C     -145.988     369.268    -127.312
  C     -146.371     368.179    -126.557
  C     -147.233     367.197    -127.186
  O     -147.625     366.150    -126.680
  N     -145.829     368.234    -125.298
  C     -145.155     369.369    -125.277
  N     -145.236     370.038    -126.472
  O     -142.548     372.018    -121.152
  O     -143.577     369.689    -121.430
  H     -144.393     373.862    -127.607
  H     -143.043     371.931    -120.313
  H     -148.166     366.900    -128.964
  H     -144.599     369.743    -124.431
  H     -144.135     371.165    -127.799
  H     -146.650     372.198    -127.100
  H     -148.373     368.406    -130.754
  H     -146.086     372.431    -124.764
  H     -147.210     369.679    -130.894
  H     -143.445     373.707    -125.667
  H     -142.531     372.924    -123.636
  H     -144.083     373.690    -123.196
  P     -146.846     374.845    -124.163
  C     -148.675     375.467    -125.909
  O     -148.349     374.760    -124.720
  O     -146.592     376.423    -124.039
  O     -146.586     374.126    -122.880
  H     -146.904     376.741    -123.169
  H     -149.707     375.310    -126.146
  H     -148.066     375.111    -126.714
  H     -148.498     376.512    -125.763

 6  7  8  9  10  11  12  13  14  15  26  29  33  34 0
 6-311+G(2d,p)
 ****
 36  38  39  40  41 0
 6-311+G(2d,p)
 ****
 1  2  3  4  5  16  17  18  19  20  21  22  23  24  25 0
 3-21G
 ****
 27  28  30  31  32  35  37  42  43  44  45  46  47 0
 3-21G
 ****
 48  49 0
 3-21G
 ****


