%nproc=1
%NoSave
%Mem=1900MB
#P OB98/GEN NMR

erre ene a

0 1
  C      182.082     108.501     344.947
  O      183.118     107.548     345.085
  H      182.387     109.459     345.375
  H      181.872     108.643     343.881
  H      181.172     108.145     345.443
  P      183.603     107.223     346.579
  C      182.124     105.099     346.858
  O      182.375     106.439     347.257
  C      181.033     104.507     347.742
  O      180.663     103.193     347.262
  C      181.454     104.313     349.193
  O      181.348     105.505     349.954
  C      180.441     103.276     349.646
  O      179.167     103.907     349.878
  C      180.361     102.362     348.414
  N      180.829      97.265     348.557
  C      179.748      98.068     348.463
  N      179.711      99.418     348.408
  C      180.949      99.930     348.449
  C      182.146      99.235     348.542
  C      182.056      97.832     348.600
  N      183.153      97.012     348.729
  N      183.214     100.111     348.580
  C      182.670     101.307     348.501
  N      181.303     101.252     348.453
  O      183.569     108.646     347.311
  O      184.922     106.534     346.702
  H      179.125     104.689     349.299
  H      184.056     108.606     348.155
  H      178.788      97.563     348.429
  H      183.219     102.240     348.483
  H      179.362     101.934     348.266
  H      180.728     102.780     350.575
  H      182.462     103.885     349.266
  H      180.146     105.149     347.670
  H      183.046     104.515     346.968
  H      182.979      96.035     348.913
  H      184.054      97.430     348.910
  H      181.814     105.085     345.810
  P      181.612     105.398     351.538
  C      184.136     105.404     350.929
  O      183.099     104.822     351.709
  O      180.688     104.168     351.973
  O      181.303     106.642     352.303
  H      180.353     104.289     352.883
  H      185.064     104.919     351.150
  H      184.214     106.446     351.160
  H      183.910     105.285     349.890

 6  7  8  9  10  11  12  13  14  15  25  28  32  33  34  35 0
 6-311+G(2d,p)
 ****
 36  39  40 0
 6-311+G(2d,p)
 ****
 1  2  3  4  5  16  17  18  19  20  21  22  23  24 0
 3-21G
 ****
 26  27  29  30  31  37  38  41  42  43  44  45  46  47 0
 3-21G
 ****
 48 0
 3-21G
 ****


