%nproc=1
%NoSave
%Mem=1900MB
#P OB98/GEN NMR

erre ene a

0 1
  C      247.883    -798.973     618.825
  O      247.591    -797.591     618.861
  P      248.625    -796.628     619.623
  C      249.347    -796.323     622.118
  O      248.404    -796.890     621.196
  C      249.382    -797.153     623.398
  O      249.796    -798.515     623.122
  C      250.358    -796.641     624.445
  O      249.821    -795.559     625.201
  C      250.526    -797.870     625.318
  O      249.392    -797.986     626.235
  C      250.499    -799.007     624.283
  N      253.837    -802.782     624.668
  C      252.501    -802.750     625.020
  N      252.009    -803.873     625.607
  N      251.723    -801.734     624.811
  C      252.365    -800.679     624.217
  C      253.679    -800.603     623.831
  C      254.532    -801.744     624.074
  O      255.731    -801.811     623.841
  N      253.954    -799.383     623.270
  C      252.810    -798.727     623.305
  N      251.821    -799.460     623.910
  O      248.010    -795.166     619.397
  O      250.045    -796.730     619.142
  H      249.449    -797.218     626.827
  H      248.689    -794.485     619.581
  H      254.405    -803.605     624.857
  H      252.652    -797.728     622.925
  H      249.926    -799.874     624.661
  H      251.427    -797.841     625.937
  H      252.559    -804.667     625.860
  H      251.330    -796.384     623.996
  H      251.027    -803.841     625.936
  H      248.348    -797.200     623.806
  H      249.060    -795.305     622.342
  H      250.329    -796.310     621.641
  P      250.875    -794.616     625.946
  C      252.280    -794.872     628.125
  O      251.181    -795.338     627.342
  O      249.993    -793.339     626.360
  O      252.070    -794.238     625.113
  H      250.562    -792.547     626.440
  H      252.178    -795.274     629.143
  H      252.286    -793.783     628.195
  H      253.224    -795.218     627.694
  H      247.113    -799.486     618.288
  H      247.935    -799.353     619.824
  H      248.822    -799.127     618.335

 3  4  5  6  7  8  9  10  11  12  23  26  30  31 0
 6-311+G(2d,p)
 ****
 33  35  36  37  38 0
 6-311+G(2d,p)
 ****
 1  2  13  14  15  16  17  18  19  20  21  22  24  25 0
 3-21G
 ****
 27  28  29  32  34  39  40  41  42  43  44  45  46  47  48  49 0
 3-21G
 ****


