%nproc=1
%NoSave
%Mem=1900MB
#P OB98/GEN NMR

erre ene a

0 1
  C      398.693    -184.990    -754.380
  O      399.093    -185.187    -753.002
  P      400.662    -185.249    -752.643
  C      401.152    -182.966    -751.457
  O      401.257    -183.751    -752.635
  C      402.497    -182.938    -750.732
  O      403.552    -182.547    -751.634
  C      402.571    -181.945    -749.581
  O      401.906    -182.421    -748.416
  C      404.081    -181.810    -749.396
  O      404.603    -182.883    -748.580
  C      404.596    -181.926    -750.848
  N      404.989    -180.632    -751.404
  C      406.350    -180.346    -751.436
  O      407.201    -181.107    -750.965
  N      406.701    -179.148    -751.975
  C      405.837    -178.186    -752.443
  O      406.222    -177.113    -752.895
  C      404.418    -178.496    -752.306
  C      404.059    -179.686    -751.795
  O      401.283    -185.839    -753.992
  O      401.021    -186.105    -751.472
  H      405.576    -182.791    -748.610
  H      402.106    -186.333    -753.787
  H      407.693    -178.930    -752.040
  H      403.685    -177.752    -752.640
  H      403.011    -179.919    -751.694
  H      405.458    -182.594    -750.892
  H      404.359    -180.879    -748.890
  H      402.162    -180.975    -749.902
  H      402.725    -183.957    -750.364
  H      400.391    -183.411    -750.798
  H      400.832    -181.948    -751.722
  P      400.898    -181.401    -747.693
  C      398.616    -182.125    -748.744
  O      399.692    -181.211    -748.715
  O      401.744    -180.042    -747.779
  O      400.538    -181.821    -746.303
  H      402.272    -179.984    -748.594
  H      398.419    -182.561    -747.748
  H      398.863    -182.949    -749.440
  H      397.701    -181.630    -749.107
  H      397.625    -184.973    -754.442
  H      399.073    -185.791    -754.980
  H      399.086    -184.060    -754.736

 3  4  5  6  7  8  9  10  11  12  13  23  28  29  30  31  32 0
 6-311+G(2d,p)
 ****
 33  34 0
 6-311+G(2d,p)
 ****
 1  2  14  15  16  17  18  19  20  21  22  24  25  26 0
 3-21G
 ****
 27  35  36  37  38  39  40  41  42  43  44  45 0
 3-21G
 ****


