%nproc=1
%NoSave
%Mem=1900MB
#P OB98/GEN NMR

erre ene a

0 1
  C      391.510    -137.310     -20.193
  O      392.097    -136.010     -20.041
  P      393.694    -135.909     -19.965
  C      393.978    -136.681     -22.431
  O      394.250    -135.692     -21.451
  C      395.254    -137.029     -23.205
  O      395.041    -138.131     -24.117
  C      395.791    -135.885     -24.053
  O      396.570    -134.979     -23.286
  C      396.681    -136.637     -25.033
  O      397.943    -136.942     -24.405
  C      395.880    -137.918     -25.280
  N      395.555    -139.166     -30.174
  C      396.555    -139.420     -29.255
  N      397.625    -140.115     -29.704
  N      396.514    -139.027     -28.007
  C      395.378    -138.361     -27.698
  C      394.315    -138.048     -28.517
  C      394.384    -138.473     -29.897
  O      393.534    -138.266     -30.759
  N      393.349    -137.354     -27.839
  C      393.810    -137.264     -26.605
  N      395.049    -137.843     -26.471
  O      394.130    -137.420     -19.644
  O      394.201    -134.958     -18.933
  H      398.288    -136.100     -24.049
  H      394.975    -137.421     -19.157
  H      395.644    -139.489     -31.124
  H      393.290    -136.792     -25.783
  H      396.523    -138.798     -25.391
  H      396.905    -136.048     -25.925
  H      397.701    -140.490     -30.634
  H      394.978    -135.379     -24.594
  H      398.353    -140.335     -29.035
  H      396.024    -137.326     -22.477
  H      393.211    -136.328     -23.126
  H      393.553    -137.561     -21.941
  P      396.190    -133.421     -23.351
  C      393.978    -133.310     -21.994
  O      395.378    -133.107     -22.007
  O      395.077    -133.375     -24.502
  O      397.332    -132.515     -23.650
  H      395.120    -132.522     -24.970
  H      393.620    -133.202     -20.968
  H      393.728    -134.310     -22.355
  H      393.485    -132.557     -22.621
  H      390.445    -137.218     -20.228
  H      391.788    -137.926     -19.363
  H      391.860    -137.755     -21.101

 3  4  5  6  7  8  9  10  11  12  23  26  30  31 0
 6-311+G(2d,p)
 ****
 33  35  36  37  38 0
 6-311+G(2d,p)
 ****
 1  2  13  14  15  16  17  18  19  20  21  22  24  25 0
 3-21G
 ****
 27  28  29  32  34  39  40  41  42  43  44  45  46  47  48  49 0
 3-21G
 ****


