%nproc=1
%NoSave
%Mem=1900MB
#P OB98/GEN NMR

erre ene a

0 1
  C      542.224    -343.674    -576.547
  O      541.947    -343.334    -577.889
  H      542.032    -344.738    -576.408
  H      541.577    -343.104    -575.878
  H      543.273    -343.469    -576.310
  P      542.257    -341.825    -578.336
  C      542.554    -342.720    -580.751
  O      541.951    -341.741    -579.909
  C      542.377    -342.350    -582.221
  O      541.094    -342.874    -582.688
  C      542.382    -340.840    -582.498
  O      543.005    -340.625    -583.774
  C      540.901    -340.512    -582.637
  O      540.672    -339.307    -583.368
  C      540.410    -341.778    -583.335
  N      536.080    -340.495    -585.550
  C      537.385    -340.232    -585.915
  N      537.567    -339.519    -587.045
  N      538.420    -340.637    -585.230
  C      538.092    -341.374    -584.135
  C      536.843    -341.695    -583.667
  C      535.700    -341.216    -584.419
  O      534.522    -341.395    -584.137
  N      536.927    -342.431    -582.512
  C      538.225    -342.552    -582.289
  N      538.973    -341.926    -583.247
  O      543.851    -341.754    -578.257
  O      541.606    -340.766    -577.507
  H      541.082    -339.416    -584.255
  H      544.133    -341.414    -577.385
  H      535.316    -340.148    -586.106
  H      538.669    -343.075    -581.451
  H      540.667    -341.798    -584.400
  H      540.446    -340.407    -581.648
  H      536.817    -339.209    -587.647
  H      542.887    -340.239    -581.735
  H      538.523    -339.352    -587.352
  H      543.153    -342.859    -582.808
  H      542.079    -343.693    -580.562
  H      543.620    -342.792    -580.507
  P      544.190    -339.552    -583.859
  C      544.696    -340.428    -586.253
  O      544.534    -339.308    -585.402
  O      545.463    -340.383    -583.346
  O      543.971    -338.318    -583.045
  H      546.116    -339.777    -582.942
  H      544.921    -340.093    -587.244
  H      543.792    -341.000    -586.266
  H      545.498    -341.037    -585.892

 6  7  8  9  10  11  12  13  14  15  26  29  33  34 0
 6-311+G(2d,p)
 ****
 36  38  39  40  41 0
 6-311+G(2d,p)
 ****
 1  2  3  4  5  16  17  18  19  20  21  22  23  24  25 0
 3-21G
 ****
 27  28  30  31  32  35  37  42  43  44  45  46  47 0
 3-21G
 ****
 48  49 0
 3-21G
 ****


