%nproc=1
%NoSave
%Mem=1900MB
#P OB98/GEN NMR

erre ene a

0 1
  C     -173.281    -230.733     252.538
  O     -174.578    -231.268     252.350
  H     -172.721    -231.390     253.214
  H     -173.357    -229.742     252.997
  H     -172.745    -230.666     251.587
  P     -175.460    -230.646     251.168
  C     -177.113    -229.321     252.666
  O     -176.065    -229.253     251.712
  C     -178.160    -228.240     252.390
  O     -177.647    -226.963     252.862
  C     -178.505    -228.084     250.900
  O     -179.908    -227.819     250.779
  C     -177.717    -226.848     250.481
  O     -178.295    -226.186     249.359
  C     -177.733    -226.028     251.772
  N     -176.168    -221.529     250.099
  C     -177.386    -222.162     249.949
  N     -178.330    -221.504     249.236
  N     -177.660    -223.345     250.446
  C     -176.634    -223.868     251.169
  C     -175.380    -223.345     251.386
  C     -175.080    -222.050     250.806
  O     -174.015    -221.446     250.887
  N     -174.610    -224.197     252.135
  C     -175.398    -225.233     252.372
  N     -176.636    -225.080     251.808
  O     -176.739    -231.615     251.115
  O     -174.787    -230.561     249.837
  H     -179.205    -225.915     249.614
  H     -176.758    -232.086     250.263
  H     -176.011    -220.625     249.683
  H     -175.116    -226.121     252.929
  H     -178.668    -225.448     251.885
  H     -176.693    -227.139     250.219
  H     -178.204    -220.575     248.863
  H     -178.245    -228.961     250.304
  H     -179.244    -221.933     249.146
  H     -179.055    -228.460     252.981
  H     -176.685    -229.169     253.669
  H     -177.579    -230.312     252.625
  P     -180.871    -229.092     250.579
  C     -179.968    -229.844     248.261
  O     -180.106    -230.158     249.641
  O     -182.032    -228.526     249.628
  O     -181.423    -229.641     251.854
  H     -182.856    -228.423     250.142
  H     -179.444    -230.635     247.766
  H     -179.418    -228.932     248.156
  H     -180.937    -229.729     247.823

 6  7  8  9  10  11  12  13  14  15  26  29  33  34 0
 6-311+G(2d,p)
 ****
 36  38  39  40  41 0
 6-311+G(2d,p)
 ****
 1  2  3  4  5  16  17  18  19  20  21  22  23  24  25 0
 3-21G
 ****
 27  28  30  31  32  35  37  42  43  44  45  46  47 0
 3-21G
 ****
 48  49 0
 3-21G
 ****


