%nproc=1
%NoSave
%Mem=1900MB
#P OB98/GEN NMR

erre ene a

0 1
  C      477.417     247.792      46.852
  O      478.232     246.775      46.308
  H      477.961     248.338      47.627
  H      477.145     248.489      46.056
  H      476.504     247.361      47.272
  P      478.738     245.633      47.315
  C      479.038     244.164      45.192
  O      479.595     244.610      46.421
  C      479.887     243.029      44.630
  O      479.934     241.930      45.566
  C      479.358     242.439      43.327
  O      479.722     243.216      42.200
  C      480.073     241.098      43.320
  O      481.443     241.279      42.922
  C      479.995     240.696      44.799
  N      478.339     235.927      45.635
  C      479.556     236.417      45.314
  N      479.913     237.699      45.105
  C      478.860     238.517      45.256
  C      477.558     238.164      45.571
  C      477.311     236.796      45.773
  N      476.066     236.293      46.085
  N      476.744     239.280      45.604
  C      477.549     240.289      45.345
  N      478.837     239.880      45.116
  O      477.407     244.803      47.641
  O      479.427     246.114      48.548
  H      481.880     240.411      43.014
  H      477.521     244.301      48.471
  H      480.345     235.678      45.212
  H      477.252     241.329      45.310
  H      480.883     240.146      45.132
  H      479.630     240.380      42.628
  H      478.277     242.268      43.368
  H      480.911     243.402      44.503
  H      479.026     244.994      44.480
  H      475.958     235.292      46.025
  H      475.273     236.914      46.042
  H      478.014     243.825      45.365
  P      478.663     243.311      40.996
  C      478.994     245.863      40.629
  O      479.132     244.548      40.097
  O      477.339     243.846      41.715
  O      478.434     242.026      40.266
  H      476.543     243.567      41.228
  H      479.348     246.576      39.914
  H      479.567     245.946      41.529
  H      477.963     246.055      40.843

 6  7  8  9  10  11  12  13  14  15  25  28  32  33  34  35 0
 6-311+G(2d,p)
 ****
 36  39  40 0
 6-311+G(2d,p)
 ****
 1  2  3  4  5  16  17  18  19  20  21  22  23  24 0
 3-21G
 ****
 26  27  29  30  31  37  38  41  42  43  44  45  46  47 0
 3-21G
 ****
 48 0
 3-21G
 ****


