%nproc=1
%NoSave
%Mem=1900MB
#P OB98/GEN NMR

erre ene a

0 1
  C      -30.062     275.475      67.198
  O      -30.333     274.784      68.401
  H      -30.500     274.914      66.368
  H      -28.986     275.565      67.033
  H      -30.519     276.469      67.226
  P      -29.581     275.266      69.737
  C      -27.497     273.749      69.562
  O      -28.012     275.074      69.437
  C      -25.976     273.768      69.732
  O      -25.370     274.574      68.701
  C      -25.513     274.387      71.042
  O      -25.813     273.612      72.184
  C      -24.066     274.749      70.740
  O      -23.156     273.675      70.957
  C      -24.130     275.083      69.230
  N      -23.979     276.512      68.979
  C      -22.748     277.060      69.321
  O      -21.831     276.409      69.828
  N      -22.610     278.403      69.103
  C      -23.581     279.239      68.637
  O      -23.409     280.445      68.501
  C      -24.871     278.608      68.316
  C      -25.009     277.292      68.499
  O      -30.037     274.624      71.011
  O      -29.759     276.856      69.717
  H      -22.254     274.038      70.845
  H      -29.575     277.245      70.607
  H      -21.721     278.816      69.336
  H      -25.666     279.241      67.946
  H      -25.955     276.802      68.271
  H      -23.326     274.562      68.693
  H      -23.728     275.584      71.356
  H      -26.044     275.335      71.175
  H      -25.603     272.743      69.625
  H      -27.749     273.208      68.645
  H      -27.971     273.249      70.412
  P      -26.528     274.207      73.483
  C      -24.514     274.257      75.127
  O      -25.429     275.011      74.337
  O      -27.474     273.303      74.204
  O      -27.401     275.406      72.843
  H      -28.227     275.475      73.361
  H      -23.848     274.923      75.635
  H      -23.951     273.603      74.494
  H      -25.056     273.678      75.846

 6  7  8  9  10  11  12  13  14  15  16  26  31  32  33  34  35 0
 6-311+G(2d,p)
 ****
 36  37 0
 6-311+G(2d,p)
 ****
 1  2  3  4  5  17  18  19  20  21  22  23  24  25 0
 3-21G
 ****
 27  28  29  30  38  39  40  41  42  43  44  45 0
 3-21G
 ****


