%nproc=1
%NoSave
%Mem=1900MB
#P OB98/GEN NMR

erre ene a

0 1
  C      722.415    -896.420    -429.704
  O      723.264    -895.930    -430.715
  H      721.707    -895.630    -429.423
  H      722.989    -896.700    -428.816
  H      721.833    -897.280    -430.066
  P      724.292    -896.950    -431.414
  C      725.604    -897.760    -429.353
  O      725.630    -896.960    -430.532
  C      727.018    -898.220    -429.021
  O      727.483    -899.160    -429.999
  C      728.048    -897.100    -429.010
  O      727.939    -896.280    -427.852
  C      729.348    -897.900    -429.122
  O      729.743    -898.400    -427.844
  C      728.925    -899.050    -430.047
  N      729.377    -898.830    -431.436
  C      730.643    -899.340    -431.741
  O      731.355    -899.940    -430.951
  N      731.095    -899.060    -433.014
  C      730.486    -898.240    -433.931
  O      731.026    -897.820    -434.929
  C      729.120    -897.780    -433.546
  C      728.666    -898.100    -432.336
  O      724.504    -896.720    -432.883
  O      723.646    -898.390    -431.125
  H      723.189    -898.700    -431.928
  H      730.648    -898.760    -427.960
  H      732.022    -899.390    -433.237
  H      728.572    -897.200    -434.282
  H      727.671    -897.750    -432.033
  H      729.333    -900.000    -429.697
  H      730.158    -897.270    -429.515
  H      727.939    -896.490    -429.907
  H      726.995    -898.730    -428.040
  H      724.967    -898.640    -429.545
  H      725.163    -897.180    -428.525
  P      727.464    -894.760    -427.951
  C      729.678    -894.080    -429.100
  O      728.793    -893.850    -428.016
  O      726.449    -894.330    -426.968
  O      726.907    -894.640    -429.463
  H      726.020    -894.220    -429.428
  H      730.513    -893.415    -429.026
  H      729.165    -893.906    -430.023
  H      730.024    -895.092    -429.070

 6  7  8  9  10  11  12  13  14  15  16  27  31  32  33  34  35 0
 6-311+G(2d,p)
 ****
 36  37 0
 6-311+G(2d,p)
 ****
 1  2  3  4  5  17  18  19  20  21  22  23  24  25 0
 3-21G
 ****
 26  28  29  30  38  39  40  41  42  43  44  45 0
 3-21G
 ****


