%nproc=1
%NoSave
%Mem=1900MB
#P OB98/GEN NMR

erre ene a

0 1
  C      289.975     364.080     463.319
  O      289.850     365.463     463.594
  H      289.348     363.523     464.022
  H      291.012     363.760     463.447
  H      289.639     363.854     462.299
  P      290.548     366.513     462.606
  C      291.843     367.603     464.556
  O      291.928     366.953     463.291
  C      292.948     367.083     465.476
  O      292.770     365.671     465.726
  C      294.353     367.233     464.907
  O      294.804     368.567     464.993
  C      295.118     366.237     465.762
  O      295.460     366.814     467.034
  C      294.087     365.099     465.927
  N      294.323     363.980     465.013
  C      295.379     363.133     465.335
  O      296.118     363.313     466.303
  N      295.587     362.088     464.476
  C      294.929     361.875     463.301
  O      295.209     360.967     462.519
  C      293.834     362.809     463.000
  C      293.587     363.802     463.859
  O      289.680     367.639     462.142
  O      291.033     365.607     461.374
  H      296.215     366.299     467.377
  H      290.438     365.748     460.612
  H      296.359     361.472     464.680
  H      293.275     362.666     462.085
  H      292.788     364.509     463.653
  H      294.103     364.713     466.956
  H      296.051     365.923     465.295
  H      294.370     366.889     463.861
  H      292.865     367.607     466.441
  H      290.864     367.384     464.999
  H      291.938     368.687     464.409
  P      295.204     369.368     463.665
  C      297.657     369.580     464.406
  O      296.763     369.122     463.389
  O      294.772     370.794     463.629
  O      294.499     368.535     462.493
  H      293.858     369.109     462.026
  H      298.665     369.365     464.118
  H      297.435     369.082     465.327
  H      297.540     370.636     464.535

 6  7  8  9  10  11  12  13  14  15  16  26  31  32  33  34  35 0
 6-311+G(2d,p)
 ****
 36  37 0
 6-311+G(2d,p)
 ****
 1  2  3  4  5  17  18  19  20  21  22  23  24  25 0
 3-21G
 ****
 27  28  29  30  38  39  40  41  42  43  44  45 0
 3-21G
 ****


