%nproc=1
%NoSave
%Mem=1900MB
#P OB98/GEN NMR

erre ene a

0 1
  C      129.102     -57.738     -41.357
  O      128.075     -57.955     -42.304
  H      129.517     -56.739     -41.513
  H      129.900     -58.472     -41.493
  H      128.711     -57.799     -40.338
  P      127.162     -59.265     -42.168
  C      128.524     -60.505     -43.974
  O      128.063     -60.508     -42.628
  C      128.191     -61.836     -44.641
  O      128.997     -62.892     -44.075
  C      126.743     -62.277     -44.459
  O      125.881     -61.542     -45.307
  C      126.856     -63.759     -44.787
  O      126.880     -63.968     -46.206
  C      128.224     -64.111     -44.152
  N      128.104     -64.739     -42.837
  C      127.405     -65.940     -42.787
  O      126.873     -66.450     -43.772
  N      127.323     -66.533     -41.554
  C      127.786     -66.007     -40.382
  O      127.639     -66.554     -39.292
  C      128.485     -64.719     -40.490
  C      128.610     -64.153     -41.693
  O      125.819     -59.191     -42.814
  O      127.043     -59.476     -40.584
  H      125.980     -63.772     -46.532
  H      126.183     -59.139     -40.271
  H      126.810     -67.398     -41.495
  H      128.861     -64.270     -39.581
  H      129.116     -63.200     -41.792
  H      128.780     -64.793     -44.807
  H      126.021     -64.340     -44.396
  H      126.443     -62.171     -43.410
  H      128.443     -61.756     -45.707
  H      129.611     -60.357     -43.973
  H      128.052     -59.674     -44.507
  P      124.400     -61.163     -44.837
  C      123.383     -63.319     -45.776
  O      123.599     -62.537     -44.608
  O      123.693     -60.167     -45.696
  O      124.596     -60.606     -43.349
  H      124.493     -59.634     -43.344
  H      122.845     -64.207     -45.516
  H      124.326     -63.586     -46.206
  H      122.816     -62.752     -46.485

 6  7  8  9  10  11  12  13  14  15  16  26  31  32  33  34  35 0
 6-311+G(2d,p)
 ****
 36  37 0
 6-311+G(2d,p)
 ****
 1  2  3  4  5  17  18  19  20  21  22  23  24  25 0
 3-21G
 ****
 27  28  29  30  38  39  40  41  42  43  44  45 0
 3-21G
 ****


