%nproc=1
%NoSave
%Mem=1900MB
#P OB98/GEN NMR

erre ene a

0 1
  C     -183.674     448.844     -17.717
  O     -183.409     450.141     -18.204
  H     -183.330     448.117     -18.458
  H     -184.751     448.718     -17.574
  H     -183.155     448.656     -16.774
  P     -183.396     451.363     -17.171
  C     -180.827     451.586     -17.133
  O     -182.000     451.318     -16.378
  C     -180.101     452.837     -16.635
  O     -181.008     453.962     -16.607
  C     -179.580     452.678     -15.207
  O     -178.326     452.033     -15.088
  C     -179.498     454.128     -14.740
  O     -178.249     454.722     -15.134
  C     -180.663     454.788     -15.481
  N     -182.554     456.747     -11.158
  C     -181.243     456.709     -11.595
  N     -180.317     457.203     -10.745
  N     -180.883     456.214     -12.748
  C     -181.906     455.668     -13.449
  C     -183.242     455.635     -13.112
  C     -183.639     456.235     -11.855
  O     -184.783     456.288     -11.418
  N     -183.987     455.000     -14.077
  C     -183.096     454.588     -14.956
  N     -181.822     454.992     -14.632
  O     -184.447     450.915     -16.044
  O     -183.763     452.696     -17.750
  H     -178.166     455.584     -14.687
  H     -184.826     451.701     -15.613
  H     -182.777     457.166     -10.270
  H     -183.321     454.019     -15.852
  H     -180.379     455.771     -15.880
  H     -179.556     454.207     -13.651
  H     -180.533     457.486      -9.802
  H     -180.320     452.160     -14.586
  H     -179.338     456.952     -10.908
  H     -179.294     453.089     -17.333
  H     -181.143     451.726     -18.168
  H     -180.157     450.723     -17.113
  P     -177.940     451.271     -13.732
  C     -178.311     448.810     -14.497
  O     -178.766     449.897     -13.718
  O     -178.658     452.160     -12.611
  O     -176.479     451.136     -13.484
  H     -178.024     452.791     -12.224
  H     -178.974     447.979     -14.372
  H     -177.327     448.532     -14.181
  H     -178.287     449.095     -15.528

 6  7  8  9  10  11  12  13  14  15  26  29  33  34 0
 6-311+G(2d,p)
 ****
 36  38  39  40  41 0
 6-311+G(2d,p)
 ****
 1  2  3  4  5  16  17  18  19  20  21  22  23  24  25 0
 3-21G
 ****
 27  28  30  31  32  35  37  42  43  44  45  46  47 0
 3-21G
 ****
 48  49 0
 3-21G
 ****


