%nproc=1
%NoSave
%Mem=1900MB
#P OB98/GEN NMR

erre ene a

0 1
  C       32.582      74.588     143.687
  O       31.998      73.324     143.444
  H       32.260      75.277     142.902
  H       33.673      74.514     143.668
  H       32.250      74.973     144.654
  P       32.376      72.151     144.471
  C       29.979      71.609     145.246
  O       31.222      72.212     145.587
  C       29.672      70.448     146.192
  O       30.649      69.400     145.969
  C       29.735      70.836     147.671
  O       28.705      70.150     148.381
  C       31.092      70.319     148.117
  O       31.138      70.050     149.516
  C       31.260      69.086     147.231
  N       34.692      65.325     147.548
  C       33.348      65.334     147.669
  N       32.505      66.383     147.553
  C       33.181      67.501     147.235
  C       34.548      67.647     147.082
  C       35.323      66.488     147.259
  N       36.695      66.475     147.162
  N       34.865      68.962     146.802
  C       33.707      69.595     146.771
  N       32.662      68.756     147.045
  O       33.773      72.173     144.994
  O       31.978      70.847     143.635
  H       32.065      69.847     149.760
  H       31.119      70.957     143.188
  H       32.887      64.376     147.895
  H       33.576      70.653     146.573
  H       30.769      68.198     147.647
  H       31.862      71.066     147.892
  H       29.639      71.911     147.827
  H       28.693      70.030     145.931
  H       30.009      71.242     144.215
  H       37.173      65.596     147.289
  H       37.183      67.328     146.930
  H       29.201      72.375     145.320
  P       27.731      71.003     149.326
  C       25.518      70.791     148.016
  O       26.578      71.652     148.418
  O       28.398      71.934     150.280
  O       26.932      69.858     150.118
  H       26.786      70.153     151.037
  H       24.819      71.340     147.420
  H       25.022      70.407     148.883
  H       25.916      69.979     147.443

 6  7  8  9  10  11  12  13  14  15  25  28  32  33  34  35 0
 6-311+G(2d,p)
 ****
 36  39  40 0
 6-311+G(2d,p)
 ****
 1  2  3  4  5  16  17  18  19  20  21  22  23  24 0
 3-21G
 ****
 26  27  29  30  31  37  38  41  42  43  44  45  46  47 0
 3-21G
 ****
 48 0
 3-21G
 ****


