%nproc=1
%NoSave
%Mem=1900MB
#P OB98/GEN NMR

erre ene a

0 1
  C     -689.156     837.406     110.269
  O     -689.532     838.758     110.552
  P     -689.998     839.132     112.039
  C     -692.206     839.454     113.356
  O     -691.612     839.151     112.092
  C     -693.704     839.126     113.342
  O     -694.438     840.074     112.495
  C     -693.999     837.717     112.785
  O     -695.140     837.149     113.438
  C     -694.376     837.997     111.340
  O     -695.130     836.922     110.782
  C     -695.146     839.313     111.494
  N     -698.270     840.947     107.769
  C     -698.520     840.271     108.929
  N     -697.635     839.890     109.883
  C     -696.386     840.292     109.560
  C     -695.979     840.992     108.438
  C     -696.994     841.323     107.503
  N     -696.748     841.984     106.312
  N     -694.630     841.222     108.449
  C     -694.198     840.614     109.556
  N     -695.236     840.065     110.266
  O     -689.337     840.329     112.641
  O     -689.628     837.811     112.875
  H     -695.852     836.723     111.407
  H     -689.252     838.066     113.738
  H     -699.560     839.997     109.083
  H     -693.164     840.536     109.849
  H     -696.165     839.151     111.869
  H     -693.474     838.136     110.742
  H     -693.158     837.017     112.865
  H     -694.104     839.232     114.354
  H     -692.062     840.522     113.582
  H     -697.502     842.076     105.669
  H     -695.775     842.135     106.027
  H     -691.676     838.908     114.142
  P     -694.829     836.055     114.582
  C     -695.169     833.464     114.740
  O     -695.214     834.627     113.953
  O     -695.433     836.383     115.912
  O     -693.215     836.045     114.595
  H     -692.805     835.954     113.718
  H     -695.594     832.639     114.167
  H     -695.756     833.585     115.661
  H     -694.131     833.221     114.987
  H     -688.873     837.322     109.241
  H     -689.984     836.757     110.465
  H     -688.330     837.128     110.890

 3  4  5  6  7  8  9  10  11  12  22  25  29  30  31  32 0
 6-311+G(2d,p)
 ****
 33  36  37 0
 6-311+G(2d,p)
 ****
 1  2  13  14  15  16  17  18  19  20  21  23  24  26 0
 3-21G
 ****
 27  28  34  35  38  39  40  41  42  43  44  45  46  47  48 0
 3-21G
 ****


