%nproc=1
%NoSave
%Mem=1900MB
#P OB98/GEN NMR

erre ene a

0 1
  C       20.034     -15.184     155.250
  O       19.261     -16.389     155.146
  P       18.267     -16.523     153.890
  C       15.993     -16.152     155.145
  O       16.880     -17.055     154.497
  C       14.833     -16.921     155.776
  O       15.276     -17.640     156.955
  C       13.684     -16.039     156.248
  O       12.911     -15.564     155.152
  C       12.952     -16.990     157.182
  O       12.118     -17.889     156.432
  C       14.125     -17.773     157.822
  N       14.427     -17.339     159.181
  C       13.449     -17.612     160.137
  O       12.379     -18.158     159.866
  N       13.734     -17.209     161.415
  C       14.863     -16.555     161.816
  O       15.072     -16.232     162.981
  C       15.837     -16.251     160.755
  C       15.580     -16.646     159.506
  O       18.890     -17.789     153.142
  O       18.187     -15.275     153.075
  H       19.253     -18.454     153.751
  H       11.648     -18.442     157.086
  H       13.047     -17.411     162.123
  H       16.733     -15.708     161.032
  H       16.284     -16.431     158.707
  H       13.890     -18.845     157.852
  H       12.309     -16.466     157.898
  H       14.078     -15.187     156.818
  H       14.469     -17.656     155.039
  H       15.598     -15.434     154.420
  H       16.553     -15.587     155.899
  P       12.313     -14.075     155.277
  C       10.051     -14.533     154.050
  O       11.303     -13.888     154.047
  O       13.592     -13.195     154.876
  O       11.753     -13.765     156.628
  H       14.063     -13.541     154.100
  H        9.390     -14.023     153.338
  H        9.586     -14.501     155.037
  H       10.172     -15.572     153.734
  H       20.647     -15.228     156.126
  H       19.376     -14.343     155.317
  H       20.655     -15.083     154.384

 3  4  5  6  7  8  9  10  11  12  13  24  28  29  30  31  32 0
 6-311+G(2d,p)
 ****
 33  34 0
 6-311+G(2d,p)
 ****
 1  2  14  15  16  17  18  19  20  21  22  23  25  26  27 0
 3-21G
 ****
 35  36  37  38  39  40  41  42  43  44  45 0
 3-21G
 ****


