%nproc=1
%NoSave
%Mem=1900MB
#P OB98/GEN NMR

erre ene a

0 1
  C       42.387    -897.310     556.601
  O       43.329    -897.360     557.664
  H       42.932    -897.030     555.682
  H       41.628    -896.560     556.807
  H       41.924    -898.280     556.443
  P       42.826    -897.850     559.106
  C       41.996    -895.650     560.160
  O       41.619    -896.880     559.538
  C       40.829    -894.670     560.157
  O       39.906    -895.040     561.218
  C       41.241    -893.210     560.379
  O       40.427    -892.370     559.578
  C       40.934    -892.970     561.841
  O       40.667    -891.610     562.134
  C       39.712    -893.880     562.053
  N       37.618    -892.590     566.471
  C       37.496    -892.000     565.217
  N       36.725    -890.900     565.132
  N       38.080    -892.480     564.152
  C       38.816    -893.590     564.364
  C       39.018    -894.260     565.556
  C       38.368    -893.730     566.747
  O       38.434    -894.190     567.881
  N       39.842    -895.340     565.390
  C       40.158    -895.320     564.101
  N       39.565    -894.270     563.448
  O       43.900    -898.010     560.138
  O       42.088    -899.240     558.804
  H       40.540    -891.530     563.103
  H       42.666    -900.000     559.026
  H       37.161    -892.190     567.260
  H       40.799    -896.020     563.614
  H       38.773    -893.390     561.759
  H       41.776    -893.310     562.471
  H       36.232    -890.510     565.916
  H       42.314    -893.040     560.164
  H       36.609    -890.470     564.218
  H       40.288    -894.780     559.209
  H       42.839    -895.220     559.605
  H       42.332    -895.860     561.191
  P       41.100    -891.630     558.319
  C       41.960    -889.730     559.808
  O       42.305    -890.720     558.852
  O       40.129    -890.950     557.370
  O       41.861    -892.830     557.555
  H       41.882    -892.650     556.600
  H       42.837    -889.186     560.091
  H       41.538    -890.200     560.672
  H       41.245    -889.057     559.383

 6  7  8  9  10  11  12  13  14  15  26  29  33  34 0
 6-311+G(2d,p)
 ****
 36  38  39  40  41 0
 6-311+G(2d,p)
 ****
 1  2  3  4  5  16  17  18  19  20  21  22  23  24  25 0
 3-21G
 ****
 27  28  30  31  32  35  37  42  43  44  45  46  47 0
 3-21G
 ****
 48  49 0
 3-21G
 ****


