%nproc=1
%NoSave
%Mem=1900MB
#P OB98/GEN NMR

erre ene a

0 1
  C      371.066    -283.471    -180.189
  O      370.026    -284.097    -179.467
  H      370.947    -282.387    -180.108
  H      371.021    -283.751    -181.244
  H      372.036    -283.752    -179.769
  P      369.953    -285.698    -179.541
  C      367.406    -285.833    -179.040
  O      368.726    -286.152    -178.616
  C      366.397    -286.460    -178.082
  O      366.513    -287.902    -178.124
  C      366.606    -286.080    -176.622
  O      366.100    -284.791    -176.314
  C      365.838    -287.186    -175.923
  O      364.437    -286.886    -175.832
  C      366.089    -288.399    -176.837
  N      367.063    -289.320    -176.255
  C      366.632    -290.636    -176.101
  O      365.508    -291.024    -176.427
  N      367.526    -291.494    -175.522
  C      368.758    -291.160    -175.044
  O      369.489    -291.966    -174.482
  C      369.154    -289.753    -175.217
  C      368.302    -288.909    -175.805
  O      371.245    -286.161    -178.717
  O      369.939    -286.263    -180.923
  H      371.927    -286.489    -179.331
  H      364.119    -286.806    -176.753
  H      367.232    -292.450    -175.401
  H      370.129    -289.452    -174.847
  H      368.566    -287.863    -175.934
  H      365.156    -288.953    -177.005
  H      366.202    -287.333    -174.907
  H      367.668    -286.160    -176.357
  H      365.387    -286.186    -178.410
  H      367.235    -286.231    -180.044
  H      367.294    -284.744    -179.070
  P      367.012    -283.826    -175.415
  C      364.897    -282.814    -174.219
  O      366.069    -282.600    -174.991
  O      367.987    -283.221    -176.533
  O      367.698    -284.534    -174.296
  H      367.567    -283.213    -177.412
  H      364.410    -281.878    -174.043
  H      365.163    -283.259    -173.283
  H      364.235    -283.466    -174.749

 6  7  8  9  10  11  12  13  14  15  16  27  31  32  33  34  35 0
 6-311+G(2d,p)
 ****
 36  37 0
 6-311+G(2d,p)
 ****
 1  2  3  4  5  17  18  19  20  21  22  23  24  25 0
 3-21G
 ****
 26  28  29  30  38  39  40  41  42  43  44  45 0
 3-21G
 ****


