%nproc=1
%NoSave
%Mem=1900MB
#P OB98/GEN NMR

erre ene a

0 1
  C      289.895     -64.331    -177.825
  O      289.903     -64.880    -179.129
  H      288.925     -64.536    -177.366
  H      290.048     -63.250    -177.856
  H      290.675     -64.799    -177.219
  P      291.106     -64.477    -180.112
  C      289.391     -63.087    -181.445
  O      290.404     -64.086    -181.506
  C      288.761     -62.853    -182.818
  O      289.771     -62.505    -183.789
  C      288.068     -64.075    -183.401
  O      286.914     -64.485    -182.705
  C      287.956     -63.700    -184.870
  O      286.832     -62.862    -185.135
  C      289.270     -62.908    -185.083
  N      290.262     -63.671    -185.831
  C      290.176     -63.591    -187.216
  O      289.312     -62.943    -187.808
  N      291.103     -64.315    -187.914
  C      292.055     -65.128    -187.374
  O      292.846     -65.769    -188.056
  C      292.073     -65.204    -185.903
  C      291.190     -64.481    -185.210
  O      292.201     -65.494    -180.247
  O      291.603     -63.065    -179.550
  H      286.757     -62.784    -186.105
  H      292.492     -62.829    -179.914
  H      291.067     -64.258    -188.920
  H      292.807     -65.848    -185.440
  H      291.185     -64.519    -184.123
  H      289.068     -61.981    -185.639
  H      287.864     -64.577    -185.514
  H      288.765     -64.921    -183.350
  H      288.074     -62.005    -182.736
  H      289.857     -62.159    -181.100
  H      288.624     -63.389    -180.724
  P      286.491     -66.010    -182.511
  C      284.050     -65.842    -183.430
  O      284.902     -66.077    -182.316
  O      287.346     -66.833    -181.604
  O      286.669     -66.589    -184.008
  H      286.967     -67.518    -183.923
  H      283.029     -65.926    -183.122
  H      284.253     -66.564    -184.193
  H      284.227     -64.859    -183.814

 6  7  8  9  10  11  12  13  14  15  16  26  31  32  33  34  35 0
 6-311+G(2d,p)
 ****
 36  37 0
 6-311+G(2d,p)
 ****
 1  2  3  4  5  17  18  19  20  21  22  23  24  25 0
 3-21G
 ****
 27  28  29  30  38  39  40  41  42  43  44  45 0
 3-21G
 ****


