%nproc=1
%NoSave
%Mem=1900MB
#P OB98/GEN NMR

erre ene a

0 1
  C       13.373    -201.373      58.447
  O       13.749    -200.611      59.575
  H       12.382    -201.808      58.601
  H       13.337    -200.716      57.573
  H       14.103    -202.164      58.263
  P       13.839    -201.403      60.969
  C       15.811    -200.015      61.910
  O       14.444    -200.373      62.046
  C       15.934    -198.719      61.113
  O       15.108    -197.713      61.754
  C       17.369    -198.171      61.023
  O       17.707    -197.868      59.664
  C       17.321    -196.876      61.811
  O       18.173    -195.869      61.277
  C       15.850    -196.488      61.727
  N       16.994    -192.165      64.176
  C       17.299    -192.593      62.931
  N       16.882    -193.711      62.304
  C       16.039    -194.409      63.086
  C       15.618    -194.087      64.365
  C       16.151    -192.912      64.923
  N       15.884    -192.505      66.213
  N       14.755    -195.050      64.854
  C       14.692    -195.959      63.903
  N       15.463    -195.622      62.821
  O       15.036    -202.440      60.723
  O       12.584    -202.099      61.369
  H       19.068    -196.250      61.213
  H       14.688    -203.347      60.812
  H       17.972    -191.955      62.365
  H       14.147    -196.893      63.961
  H       15.618    -195.974      60.785
  H       17.624    -197.076      62.845
  H       18.110    -198.863      61.436
  H       15.523    -198.882      60.109
  H       16.348    -200.811      61.382
  H       16.399    -191.717      66.571
  H       15.346    -193.117      66.809
  H       16.250    -199.895      62.905
  P       18.723    -198.886      58.942
  C       18.298    -198.086      56.508
  O       19.226    -198.200      57.578
  O       17.764    -200.069      58.452
  O       19.803    -199.394      59.837
  H       18.074    -200.921      58.814
  H       18.772    -197.613      55.674
  H       17.461    -197.498      56.823
  H       17.962    -199.061      56.222

 6  7  8  9  10  11  12  13  14  15  25  28  32  33  34  35 0
 6-311+G(2d,p)
 ****
 36  39  40 0
 6-311+G(2d,p)
 ****
 1  2  3  4  5  16  17  18  19  20  21  22  23  24 0
 3-21G
 ****
 26  27  29  30  31  37  38  41  42  43  44  45  46  47  48 0
 3-21G
 ****


