%nproc=1
%NoSave
%Mem=1900MB
#P OB98/GEN NMR

erre ene a

0 1
  C     -325.876    -263.353     450.916
  O     -324.781    -263.669     450.077
  H     -326.046    -264.187     451.601
  H     -326.775    -263.203     450.311
  H     -325.662    -262.452     451.500
  P     -324.248    -262.500     449.113
  C     -324.339    -259.982     449.846
  O     -323.847    -261.289     450.081
  C     -324.168    -259.108     451.092
  O     -324.957    -259.673     452.169
  C     -322.721    -259.008     451.579
  O     -322.509    -257.694     452.098
  C     -322.662    -260.015     452.715
  O     -321.608    -259.731     453.632
  C     -324.082    -259.896     453.293
  N     -324.472    -261.080     454.056
  C     -324.621    -260.920     455.436
  O     -324.408    -259.823     455.959
  N     -324.960    -262.005     456.202
  C     -325.077    -263.169     455.645
  N     -325.391    -264.214     456.460
  C     -324.888    -263.397     454.199
  C     -324.598    -262.320     453.470
  O     -325.605    -262.003     448.422
  O     -323.189    -262.927     448.153
  H     -320.782    -259.585     453.121
  H     -326.341    -261.901     449.048
  H     -324.985    -264.390     453.783
  H     -324.451    -262.392     452.399
  H     -324.157    -259.022     453.951
  H     -322.496    -261.022     452.316
  H     -321.994    -259.214     450.789
  H     -324.582    -258.115     450.881
  H     -325.489    -264.019     457.449
  H     -325.398    -260.016     449.572
  H     -325.452    -265.172     456.148
  H     -323.784    -259.556     449.004
  P     -321.941    -256.547     451.143
  C     -322.794    -255.009     449.244
  O     -323.086    -256.094     450.116
  O     -320.608    -256.813     450.530
  O     -321.848    -255.277     452.128
  H     -321.019    -254.802     451.927
  H     -323.641    -254.816     448.619
  H     -321.950    -255.258     448.635
  H     -322.571    -254.137     449.822

 6  7  8  9  10  11  12  13  14  15  16  26  30  31  32  33  35 0
 6-311+G(2d,p)
 ****
 37  38 0
 6-311+G(2d,p)
 ****
 1  2  3  4  5  17  18  19  20  21  22  23  24  25 0
 3-21G
 ****
 27  28  29  34  36  39  40  41  42  43  44  45  46 0
 3-21G
 ****


