%nproc=1
%NoSave
%Mem=1900MB
#P OB98/GEN NMR

erre ene a

0 1
  C      235.104      26.547      -6.339
  O      234.664      27.120      -5.106
  P      234.339      28.695      -5.141
  C      235.647      29.316      -2.989
  O      234.382      29.230      -3.626
  C      235.505      29.243      -1.460
  O      234.388      30.070      -1.010
  C      235.249      27.817      -0.937
  O      235.916      27.715       0.332
  C      233.743      27.813      -0.755
  O      233.276      26.751       0.064
  C      233.537      29.224      -0.202
  N      229.040      29.106       2.203
  C      230.234      28.549       2.495
  N      231.392      28.619       1.794
  C      231.229      29.378       0.700
  C      230.074      30.010       0.270
  C      228.935      29.857       1.078
  N      227.705      30.402       0.781
  N      230.293      30.676      -0.931
  C      231.545      30.386      -1.239
  N      232.168      29.671      -0.255
  O      232.788      28.752      -5.527
  O      235.197      29.457      -6.098
  H      233.715      26.790       0.937
  H      232.683      28.944      -6.478
  H      230.271      27.953       3.404
  H      232.041      30.653      -2.166
  H      233.871      29.310       0.837
  H      233.259      27.707      -1.734
  H      235.621      27.032      -1.598
  H      236.420      29.646      -1.008
  H      236.142      30.255      -3.254
  H      226.949      30.231       1.425
  H      227.582      30.958      -0.057
  H      236.296      28.515      -3.360
  P      237.509      27.559       0.357
  C      237.016      25.619       1.963
  O      237.813      26.764       1.723
  O      237.947      29.050       0.770
  O      238.148      27.053      -0.891
  H      237.448      29.362       1.539
  H      237.371      25.129       2.872
  H      237.092      24.917       1.124
  H      235.969      25.917       2.112
  H      235.290      25.502      -6.201
  H      236.004      27.031      -6.656
  H      234.347      26.679      -7.084

 3  4  5  6  7  8  9  10  11  12  22  25  29  30  31  32 0
 6-311+G(2d,p)
 ****
 33  36  37 0
 6-311+G(2d,p)
 ****
 1  2  13  14  15  16  17  18  19  20  21  23  24  26 0
 3-21G
 ****
 27  28  34  35  38  39  40  41  42  43  44  45  46  47  48 0
 3-21G
 ****


