%nproc=1
%NoSave
%Mem=1900MB
#P OB98/GEN NMR

erre ene a

0 1
  C       30.565     137.565     114.942
  O       31.676     137.100     115.680
  H       29.684     137.641     115.586
  H       30.798     138.556     114.544
  H       30.359     136.888     114.108
  P       31.490     135.699     116.439
  C       31.716     134.483     114.161
  O       30.949     134.657     115.343
  C       32.306     133.078     114.120
  O       33.128     132.848     115.282
  C       31.276     131.954     114.126
  O       30.699     131.756     112.844
  C       32.149     130.777     114.536
  O       32.870     130.286     113.391
  C       33.124     131.419     115.535
  N       34.879     130.120     120.182
  C       35.502     130.261     118.990
  N       34.973     130.596     117.798
  C       33.652     130.814     117.906
  C       32.881     130.710     119.052
  C       33.546     130.337     120.232
  N       32.898     130.180     121.438
  N       31.566     131.021     118.785
  C       31.539     131.308     117.499
  N       32.776     131.191     116.923
  O       30.212     135.946     117.374
  O       32.668     135.240     117.233
  H       32.201     130.016     112.734
  H       30.335     135.461     118.211
  H       36.575     130.082     118.998
  H       30.655     131.610     116.950
  H       34.150     131.065     115.379
  H       31.579     129.941     114.946
  H       30.511     132.121     114.892
  H       32.950     133.009     113.234
  H       32.531     135.214     114.145
  H       33.449     130.109     122.277
  H       31.899     130.354     121.467
  H       31.070     134.651     113.294
  P       29.285     130.994     112.780
  C       27.972     133.197     113.171
  O       28.274     131.890     113.645
  O       29.524     129.711     113.706
  O       28.830     130.617     111.413
  H       28.916     128.993     113.441
  H       27.290     133.672     113.845
  H       27.526     133.130     112.201
  H       28.873     133.771     113.111

 6  7  8  9  10  11  12  13  14  15  25  28  32  33  34  35 0
 6-311+G(2d,p)
 ****
 36  39  40 0
 6-311+G(2d,p)
 ****
 1  2  3  4  5  16  17  18  19  20  21  22  23  24 0
 3-21G
 ****
 26  27  29  30  31  37  38  41  42  43  44  45  46  47  48 0
 3-21G
 ****


