%nproc=1
%NoSave
%Mem=1900MB
#P OB98/GEN NMR

erre ene a

0 1
  C        6.628     192.450    -135.903
  O        6.333     193.562    -135.084
  H        7.524     191.958    -135.520
  H        6.823     192.789    -136.923
  H        5.802     191.733    -135.900
  P        4.896     194.248    -135.270
  C        3.610     192.691    -133.646
  O        4.078     194.005    -133.907
  C        3.466     192.467    -132.139
  O        4.782     192.217    -131.579
  C        2.861     193.664    -131.391
  O        1.993     193.174    -130.364
  C        4.069     194.335    -130.763
  O        3.734     195.091    -129.600
  C        4.971     193.137    -130.488
  N        9.292     192.259    -128.046
  C        8.076     191.609    -127.970
  N        7.995     190.572    -127.108
  N        7.030     191.946    -128.678
  C        7.268     192.979    -129.524
  C        8.422     193.707    -129.686
  C        9.564     193.341    -128.876
  O       10.660     193.894    -128.881
  N        8.254     194.700    -130.620
  C        7.002     194.571    -131.017
  N        6.365     193.537    -130.386
  O        4.168     193.286    -136.322
  O        4.918     195.662    -135.748
  H        3.342     194.470    -128.949
  H        3.995     193.773    -137.149
  H       10.062     191.967    -127.468
  H        6.509     195.199    -131.746
  H        4.712     192.623    -129.555
  H        4.532     195.015    -131.489
  H        8.774     190.227    -126.569
  H        2.306     194.340    -132.042
  H        7.123     190.054    -127.064
  H        2.873     191.560    -131.976
  H        4.326     191.971    -134.053
  H        2.641     192.546    -134.137
  P        0.414     193.311    -130.619
  C       -0.035     190.809    -131.119
  O       -0.281     191.909    -130.254
  O        0.308     193.383    -132.214
  O       -0.198     194.511    -129.976
  H        0.077     194.289    -132.491
  H       -0.556     189.947    -130.757
  H        1.015     190.605    -131.147
  H       -0.378     191.046    -132.104

 6  7  8  9  10  11  12  13  14  15  26  29  33  34 0
 6-311+G(2d,p)
 ****
 36  38  39  40  41 0
 6-311+G(2d,p)
 ****
 1  2  3  4  5  16  17  18  19  20  21  22  23  24  25 0
 3-21G
 ****
 27  28  30  31  32  35  37  42  43  44  45  46  47 0
 3-21G
 ****
 48  49 0
 3-21G
 ****


