%nproc=1
%NoSave
%Mem=1900MB
#P OB98/GEN NMR

erre ene a

0 1
  C      -72.817      91.044      21.682
  O      -71.587      90.460      22.060
  H      -73.105      90.648      20.707
  H      -72.720      92.131      21.603
  H      -73.596      90.789      22.406
  P      -70.884      90.968      23.413
  C      -70.210      93.001      21.954
  O      -70.723      92.553      23.200
  C      -69.878      94.490      22.022
  O      -69.209      94.928      20.821
  C      -71.091      95.411      22.146
  O      -71.678      95.398      23.438
  C      -70.444      96.744      21.812
  O      -69.682      97.208      22.943
  C      -69.509      96.342      20.645
  N      -70.106      96.579      19.330
  C      -70.658      97.848      19.112
  O      -70.632      98.703      19.997
  N      -71.265      98.108      17.905
  C      -71.330      97.178      17.005
  N      -71.983      97.472      15.844
  C      -70.747      95.835      17.185
  C      -70.161      95.601      18.360
  O      -69.641      90.246      23.822
  O      -72.046      90.907      24.510
  H      -70.285      97.218      23.708
  H      -71.659      91.201      25.372
  H      -70.836      95.092      16.405
  H      -69.723      94.634      18.575
  H      -68.558      96.884      20.704
  H      -71.168      97.527      21.567
  H      -71.837      95.181      21.379
  H      -69.177      94.636      22.853
  H      -72.406      98.387      15.770
  H      -70.959      92.800      21.184
  H      -72.314      96.738      15.225
  H      -69.294      92.456      21.708
  P      -73.263      95.640      23.545
  C      -73.256      98.216      23.954
  O      -73.532      97.147      23.061
  O      -73.507      95.700      25.124
  O      -74.123      94.619      22.868
  H      -73.763      94.826      25.474
  H      -73.488      99.146      23.479
  H      -72.220      98.200      24.220
  H      -73.852      98.107      24.836

 6  7  8  9  10  11  12  13  14  15  16  26  30  31  32  33  35 0
 6-311+G(2d,p)
 ****
 37  38 0
 6-311+G(2d,p)
 ****
 1  2  3  4  5  17  18  19  20  21  22  23  24  25 0
 3-21G
 ****
 27  28  29  34  36  39  40  41  42  43  44  45  46 0
 3-21G
 ****


