%nproc=1
%NoSave
%Mem=1900MB
#P OB98/GEN NMR

erre ene a

0 1
  C      518.086     547.914    -632.826
  O      517.650     546.744    -633.487
  H      517.209     548.483    -632.517
  H      518.682     548.529    -633.506
  H      518.673     547.663    -631.938
  P      518.742     545.640    -633.902
  C      517.572     544.866    -636.065
  O      517.970     544.515    -634.745
  C      516.391     543.998    -636.499
  O      516.824     542.640    -636.728
  C      515.285     543.897    -635.447
  O      514.512     545.077    -635.390
  C      514.546     542.663    -635.936
  O      513.635     542.987    -636.987
  C      515.697     541.778    -636.457
  N      516.057     540.726    -635.505
  C      515.427     539.497    -635.685
  O      514.609     539.272    -636.579
  N      515.710     538.541    -634.744
  C      516.429     538.742    -633.600
  O      516.458     537.934    -632.670
  C      517.126     540.032    -633.502
  C      516.903     540.952    -634.436
  O      519.594     545.126    -632.786
  O      519.621     546.380    -635.018
  H      520.459     546.680    -634.618
  H      513.271     542.133    -637.301
  H      515.215     537.663    -634.840
  H      517.769     540.196    -632.648
  H      517.380     541.930    -634.373
  H      515.423     541.317    -637.416
  H      513.966     542.198    -635.126
  H      515.727     543.687    -634.465
  H      515.999     544.395    -637.445
  H      518.416     544.694    -636.747
  H      517.307     545.927    -636.084
  P      514.613     546.052    -634.123
  C      512.109     545.964    -633.514
  O      513.196     546.788    -633.935
  O      515.797     546.958    -634.103
  O      514.651     545.045    -632.868
  H      515.395     545.288    -632.289
  H      511.224     546.559    -633.424
  H      512.341     545.524    -632.567
  H      511.947     545.191    -634.236

 6  7  8  9  10  11  12  13  14  15  16  27  31  32  33  34  35 0
 6-311+G(2d,p)
 ****
 36  37 0
 6-311+G(2d,p)
 ****
 1  2  3  4  5  17  18  19  20  21  22  23  24  25 0
 3-21G
 ****
 26  28  29  30  38  39  40  41  42  43  44  45 0
 3-21G
 ****


