%nproc=1
%NoSave
%Mem=1900MB
#P OB98/GEN NMR

erre ene a

0 1
  C      -63.082      53.402     -50.084
  O      -61.828      53.641     -49.478
  H      -63.791      54.159     -49.737
  H      -63.458      52.414     -49.804
  H      -62.995      53.470     -51.172
  P      -60.674      52.565     -49.784
  C      -59.117      52.275     -51.857
  O      -60.307      52.835     -51.324
  C      -59.353      51.843     -53.300
  O      -60.240      50.704     -53.351
  C      -60.009      52.908     -54.170
  O      -59.099      53.902     -54.610
  C      -60.510      52.052     -55.318
  O      -59.408      51.702     -56.176
  C      -61.040      50.814     -54.560
  N      -62.462      50.907     -54.228
  C      -63.365      50.485     -55.211
  O      -62.961      50.070     -56.295
  N      -64.712      50.575     -54.953
  C      -65.124      51.034     -53.812
  N      -66.468      51.113     -53.616
  C      -64.207      51.473     -52.744
  C      -62.908      51.385     -53.015
  O      -61.465      51.174     -49.853
  O      -59.513      52.566     -48.849
  H      -59.791      51.313     -56.983
  H      -60.857      50.459     -50.162
  H      -64.598      51.859     -51.814
  H      -62.175      51.692     -52.278
  H      -60.877      49.899     -55.142
  H      -61.253      52.558     -55.939
  H      -60.872      53.362     -53.670
  H      -58.389      51.525     -53.720
  H      -67.070      50.864     -54.389
  H      -58.837      51.413     -51.244
  H      -66.877      51.620     -52.842
  H      -58.309      53.013     -51.827
  P      -59.710      55.271     -55.185
  C      -61.082      57.212     -54.140
  O      -60.713      55.842     -54.071
  O      -60.693      54.768     -56.341
  O      -58.698      56.248     -55.696
  H      -60.665      55.365     -57.114
  H      -61.750      57.442     -53.336
  H      -61.568      57.404     -55.074
  H      -60.206      57.822     -54.062

 6  7  8  9  10  11  12  13  14  15  16  26  30  31  32  33  35 0
 6-311+G(2d,p)
 ****
 37  38 0
 6-311+G(2d,p)
 ****
 1  2  3  4  5  17  18  19  20  21  22  23  24  25 0
 3-21G
 ****
 27  28  29  34  36  39  40  41  42  43  44  45  46 0
 3-21G
 ****


