%nproc=1
%NoSave
%Mem=1900MB
#P OB98/GEN NMR

erre ene a

0 1
  C     -127.897      16.006     185.679
  O     -128.701      16.212     186.828
  P     -129.450      14.929     187.442
  C     -131.268      13.262     186.597
  O     -130.549      14.472     186.367
  C     -132.756      13.481     186.337
  O     -133.282      14.464     187.250
  C     -133.089      14.002     184.944
  O     -132.992      12.971     183.972
  C     -134.500      14.533     185.174
  O     -135.441      13.447     185.169
  C     -134.390      15.130     186.588
  N     -132.837      19.154     189.356
  C     -133.010      17.851     189.679
  N     -133.450      16.845     188.892
  C     -133.711      17.291     187.652
  C     -133.603      18.591     187.186
  C     -133.139      19.551     188.098
  N     -132.964      20.881     187.768
  N     -133.982      18.671     185.862
  C     -134.306      17.437     185.532
  N     -134.145      16.564     186.572
  O     -130.324      15.549     188.627
  O     -128.538      13.841     187.927
  H     -135.221      12.866     185.925
  H     -130.393      14.926     189.373
  H     -132.766      17.580     190.702
  H     -134.656      17.127     184.553
  H     -135.291      14.955     187.190
  H     -134.818      15.249     184.411
  H     -132.415      14.828     184.676
  H     -133.274      12.528     186.519
  H     -131.132      12.947     187.637
  H     -132.771      21.526     188.518
  H     -133.322      21.201     186.877
  H     -130.864      12.480     185.944
  P     -132.373      13.362     182.544
  C     -132.937      15.203     180.837
  O     -133.359      14.512     181.999
  O     -132.785      12.097     181.654
  O     -130.920      13.707     182.559
  H     -133.722      11.866     181.764
  H     -133.719      15.908     180.550
  H     -132.774      14.499     180.017
  H     -132.016      15.755     181.047
  H     -127.461      16.935     185.378
  H     -128.502      15.622     184.885
  H     -127.121      15.305     185.907

 3  4  5  6  7  8  9  10  11  12  22  25  29  30  31  32 0
 6-311+G(2d,p)
 ****
 33  36  37 0
 6-311+G(2d,p)
 ****
 1  2  13  14  15  16  17  18  19  20  21  23  24  26 0
 3-21G
 ****
 27  28  34  35  38  39  40  41  42  43  44  45  46  47  48 0
 3-21G
 ****


