%nproc=1
%NoSave
%Mem=1900MB
#P OB98/GEN NMR

erre ene a

0 1
  C      -64.639    -899.020    -115.719
  O      -63.547    -899.240    -114.846
  H      -64.437    -899.530    -116.669
  H      -64.755    -897.960    -115.912
  H      -65.556    -899.430    -115.293
  P      -63.728    -898.790    -113.322
  C      -62.690    -896.460    -113.833
  O      -63.799    -897.190    -113.326
  C      -62.927    -894.950    -113.680
  O      -63.670    -894.730    -112.451
  C      -61.637    -894.130    -113.592
  O      -61.865    -892.870    -114.262
  C      -61.489    -893.870    -112.110
  O      -60.706    -892.740    -111.787
  C      -62.956    -893.740    -111.679
  N      -63.154    -893.930    -110.249
  C      -63.992    -893.030    -109.593
  O      -64.654    -892.150    -110.146
  N      -64.074    -893.190    -108.229
  C      -63.391    -894.100    -107.483
  O      -63.496    -894.180    -106.261
  C      -62.513    -895.020    -108.225
  C      -62.436    -894.890    -109.560
  O      -62.290    -899.090    -112.688
  O      -64.832    -899.460    -112.578
  H      -62.250    -900.000    -112.336
  H      -59.776    -892.920    -112.041
  H      -64.677    -892.560    -107.736
  H      -61.948    -895.740    -107.670
  H      -61.771    -895.530    -110.138
  H      -63.344    -892.760    -111.979
  H      -61.028    -894.750    -111.628
  H      -60.761    -894.610    -114.016
  H      -63.564    -894.610    -114.501
  H      -62.562    -896.690    -114.899
  H      -61.783    -896.760    -113.292
  P      -61.384    -892.750    -115.784
  C      -59.028    -891.970    -114.913
  O      -59.778    -892.860    -115.729
  O      -61.670    -891.200    -116.076
  O      -62.069    -893.710    -116.690
  H      -61.510    -890.630    -115.304
  H      -57.986    -892.194    -115.005
  H      -59.328    -892.083    -113.892
  H      -59.206    -890.963    -115.227

 6  7  8  9  10  11  12  13  14  15  16  27  31  32  33  34  35 0
 6-311+G(2d,p)
 ****
 36  37 0
 6-311+G(2d,p)
 ****
 1  2  3  4  5  17  18  19  20  21  22  23  24  25 0
 3-21G
 ****
 26  28  29  30  38  39  40  41  42  43  44  45 0
 3-21G
 ****


