%nproc=1
%NoSave
%Mem=1900MB
#P OB98/GEN NMR

erre ene a

0 1
  C     -189.922    -359.392    -106.294
  O     -191.137    -359.275    -107.009
  H     -189.674    -360.444    -106.138
  H     -189.124    -358.923    -106.879
  H     -190.001    -358.879    -105.331
  P     -192.435    -359.937    -106.341
  C     -194.180    -358.145    -107.025
  O     -193.436    -358.732    -105.964
  C     -193.870    -356.652    -107.122
  O     -192.468    -356.500    -107.455
  C     -194.697    -355.886    -108.167
  O     -195.417    -354.820    -107.550
  C     -193.662    -355.283    -109.104
  O     -193.971    -353.958    -109.514
  C     -192.373    -355.335    -108.288
  N     -188.937    -352.555    -110.822
  C     -189.725    -352.254    -109.769
  N     -190.540    -353.070    -109.068
  C     -190.472    -354.329    -109.545
  C     -189.692    -354.790    -110.598
  C     -188.910    -353.838    -111.262
  N     -188.145    -354.130    -112.369
  N     -189.900    -356.148    -110.794
  C     -190.817    -356.486    -109.911
  N     -191.205    -355.415    -109.146
  O     -191.899    -360.435    -104.912
  O     -193.052    -361.052    -107.117
  H     -193.203    -353.631    -110.013
  H     -192.187    -361.354    -104.756
  H     -189.705    -351.215    -109.445
  H     -191.264    -357.467    -109.807
  H     -192.262    -354.462    -107.641
  H     -193.588    -355.916    -110.000
  H     -195.393    -356.537    -108.712
  H     -194.013    -356.206    -106.122
  H     -195.253    -358.270    -106.828
  H     -187.708    -353.365    -112.854
  H     -188.208    -355.059    -112.769
  H     -193.934    -358.654    -107.961
  P     -196.861    -355.178    -106.933
  C     -196.503    -355.155    -104.354
  O     -196.616    -355.930    -105.534
  O     -197.375    -356.348    -107.901
  O     -197.805    -354.027    -106.903
  H     -198.353    -356.364    -107.923
  H     -196.343    -355.802    -103.517
  H     -197.404    -354.596    -104.207
  H     -195.677    -354.482    -104.447

 6  7  8  9  10  11  12  13  14  15  25  28  32  33  34  35 0
 6-311+G(2d,p)
 ****
 36  39  40 0
 6-311+G(2d,p)
 ****
 1  2  3  4  5  16  17  18  19  20  21  22  23  24 0
 3-21G
 ****
 26  27  29  30  31  37  38  41  42  43  44  45  46  47  48 0
 3-21G
 ****


