%nproc=1
%NoSave
%Mem=1900MB
#P OB98/GEN NMR

erre ene a

0 1
  C      -26.214    -102.770      79.343
  O      -25.219    -102.271      78.471
  P      -25.445    -100.929      77.619
  C      -26.500    -102.301      75.717
  O      -26.680    -101.237      76.639
  C      -27.809    -102.651      75.009
  O      -28.809    -103.037      75.994
  C      -28.406    -101.513      74.167
  O      -29.045    -102.133      73.046
  C      -29.438    -100.918      75.105
  O      -30.416    -100.142      74.426
  C      -29.959    -102.183      75.801
  N      -30.636    -101.878      77.056
  C      -31.983    -102.240      77.148
  O      -32.565    -102.718      76.174
  N      -32.654    -102.002      78.322
  C      -32.058    -101.362      79.280
  N      -32.772    -101.160      80.421
  C      -30.679    -100.851      79.177
  C      -30.027    -101.154      78.056
  O      -24.227    -100.394      76.947
  O      -26.088     -99.915      78.677
  H      -29.983     -99.331      74.081
  H      -25.389     -99.556      79.279
  H      -30.245    -100.275      79.980
  H      -29.013    -100.824      77.888
  H      -30.661    -102.722      75.149
  H      -28.941    -100.264      75.833
  H      -27.667    -100.781      73.835
  H      -27.626    -103.527      74.374
  H      -33.710    -101.539      80.456
  H      -26.158    -103.178      76.275
  H      -32.378    -100.748      81.255
  H      -25.722    -102.042      74.992
  P      -29.471    -101.284      71.754
  C      -31.971    -101.559      72.240
  O      -30.904    -100.643      72.069
  O      -29.382    -102.020      70.457
  O      -28.491    -100.014      71.774
  H      -28.505     -99.581      70.898
  H      -32.810    -101.045      72.717
  H      -31.665    -102.402      72.870
  H      -32.291    -101.934      71.264
  H      -25.863    -103.667      79.809
  H      -27.103    -102.982      78.786
  H      -26.430    -102.039      80.094

 3  4  5  6  7  8  9  10  11  12  13  23  27  28  29  30  32 0
 6-311+G(2d,p)
 ****
 34  35 0
 6-311+G(2d,p)
 ****
 1  2  14  15  16  17  18  19  20  21  22  24  25  26 0
 3-21G
 ****
 31  33  36  37  38  39  40  41  42  43  44  45  46 0
 3-21G
 ****


