%nproc=1
%NoSave
%Mem=1900MB
#P OB98/GEN NMR

erre ene a

0 1
  C     -111.970    -136.930     -88.521
  O     -110.698    -137.160     -87.948
  P     -109.347    -136.839     -88.751
  C     -109.805    -139.120     -89.846
  O     -109.376    -137.783     -90.051
  C     -110.144    -139.806     -91.173
  O     -111.131    -139.015     -91.891
  C     -108.944    -140.012     -92.111
  O     -109.187    -141.236     -92.811
  C     -109.057    -138.828     -93.053
  O     -108.339    -139.018     -94.264
  C     -110.582    -138.721     -93.197
  N     -110.994    -137.408     -93.686
  C     -111.422    -137.339     -95.016
  O     -111.366    -138.335     -95.739
  N     -111.851    -136.132     -95.511
  C     -111.758    -135.069     -94.773
  N     -112.201    -133.903     -95.316
  C     -111.195    -135.076     -93.410
  C     -110.851    -136.270     -92.927
  O     -108.095    -136.922     -87.944
  O     -109.611    -135.387     -89.373
  H     -107.392    -139.155     -94.044
  H     -109.503    -134.691     -88.677
  H     -111.086    -134.157     -92.854
  H     -110.429    -136.376     -91.938
  H     -110.962    -139.485     -93.889
  H     -108.660    -137.929     -92.567
  H     -107.984    -140.046     -91.592
  H     -110.608    -140.772     -90.943
  H     -112.595    -133.943     -96.250
  H     -110.704    -139.097     -89.224
  H     -112.253    -133.035     -94.801
  H     -109.038    -139.682     -89.304
  P     -107.979    -142.172     -93.299
  C     -108.526    -141.821     -95.778
  O     -107.556    -141.663     -94.759
  O     -108.234    -143.641     -93.196
  O     -106.740    -141.728     -92.383
  H     -106.039    -142.408     -92.434
  H     -108.247    -141.200     -96.635
  H     -109.517    -141.516     -95.426
  H     -108.559    -142.868     -96.094
  H     -112.731    -137.209     -87.823
  H     -112.071    -137.514     -89.412
  H     -112.070    -135.892     -88.762

 3  4  5  6  7  8  9  10  11  12  13  23  27  28  29  30  32 0
 6-311+G(2d,p)
 ****
 34  35 0
 6-311+G(2d,p)
 ****
 1  2  14  15  16  17  18  19  20  21  22  24  25  26 0
 3-21G
 ****
 31  33  36  37  38  39  40  41  42  43  44  45  46 0
 3-21G
 ****


