%nproc=1
%NoSave
%Mem=1900MB
#P OB98/GEN NMR

erre ene a

0 1
  C     -174.497     -91.398     281.378
  O     -174.936     -92.142     280.260
  H     -175.361     -90.943     281.861
  H     -173.814     -90.608     281.054
  H     -173.992     -92.052     282.098
  P     -173.833     -92.997     279.470
  C     -172.698     -91.127     278.051
  O     -172.614     -91.992     279.175
  C     -171.826     -89.890     278.282
  O     -170.449     -90.318     278.477
  C     -171.838     -88.910     277.100
  O     -171.784     -87.572     277.603
  C     -170.548     -89.237     276.368
  O     -170.060     -88.167     275.564
  C     -169.630     -89.595     277.537
  N     -168.480     -90.403     277.123
  C     -167.276     -90.187     277.780
  O     -167.120     -89.422     278.730
  N     -166.203     -90.898     277.294
  C     -166.215     -91.756     276.233
  O     -165.220     -92.344     275.838
  C     -167.520     -91.939     275.576
  C     -168.573     -91.259     276.040
  O     -174.491     -93.202     278.024
  O     -173.432     -94.285     280.105
  H     -175.016     -94.024     278.001
  H     -170.106     -87.344     276.095
  H     -165.317     -90.751     277.762
  H     -167.569     -92.609     274.728
  H     -169.547     -91.363     275.569
  H     -169.281     -88.685     278.038
  H     -170.700     -90.105     275.713
  H     -172.715     -89.025     276.460
  H     -172.144     -89.395     279.211
  H     -173.736     -90.814     277.915
  H     -172.364     -91.664     277.159
  P     -173.050     -86.624     277.317
  C     -172.321     -85.489     275.075
  O     -173.127     -86.461     275.720
  O     -172.515     -85.210     277.836
  O     -174.300     -87.113     277.972
  H     -171.569     -85.060     277.656
  H     -172.500     -85.520     274.021
  H     -171.289     -85.696     275.268
  H     -172.566     -84.517     275.450

 6  7  8  9  10  11  12  13  14  15  16  27  31  32  33  34  35 0
 6-311+G(2d,p)
 ****
 36  37 0
 6-311+G(2d,p)
 ****
 1  2  3  4  5  17  18  19  20  21  22  23  24  25 0
 3-21G
 ****
 26  28  29  30  38  39  40  41  42  43  44  45 0
 3-21G
 ****


