%nproc=1
%NoSave
%Mem=1900MB
#P OB98/GEN NMR

erre ene a

0 1
  C     1143.190    -370.076     655.937
  O     1144.449    -370.581     655.524
  H     1143.166    -369.944     657.015
  H     1143.013    -369.109     655.447
  H     1142.398    -370.773     655.635
  P     1144.918    -371.970     656.151
  C     1147.239    -370.880     656.554
  O     1146.526    -372.013     656.080
  C     1148.687    -370.921     656.061
  O     1149.340    -372.066     656.684
  C     1148.822    -371.088     654.530
  O     1149.608    -369.998     654.006
  C     1149.637    -372.368     654.344
  O     1150.618    -372.280     653.319
  C     1150.257    -372.598     655.736
  N     1153.859    -375.959     657.021
  C     1153.769    -374.635     657.240
  N     1152.738    -373.805     656.973
  C     1151.702    -374.496     656.430
  C     1151.650    -375.864     656.196
  C     1152.787    -376.613     656.489
  N     1152.902    -377.950     656.225
  N     1150.421    -376.207     655.631
  C     1149.779    -375.049     655.526
  N     1150.522    -374.003     655.970
  O     1144.456    -373.052     655.058
  O     1144.347    -372.277     657.508
  H     1151.212    -373.051     653.441
  H     1143.989    -373.775     655.496
  H     1154.656    -374.170     657.667
  H     1148.798    -374.918     655.084
  H     1151.222    -372.039     655.832
  H     1148.935    -373.199     654.115
  H     1147.870    -371.148     654.001
  H     1149.205    -370.031     656.401
  H     1147.231    -370.883     657.646
  H     1153.816    -378.380     656.358
  H     1152.160    -378.409     655.734
  H     1146.739    -369.968     656.189
  P     1148.814    -368.632     653.740
  C     1148.557    -369.227     651.224
  O     1148.973    -368.273     652.179
  O     1149.743    -367.512     654.442
  O     1147.421    -368.616     654.263
  H     1149.214    -366.766     654.724
  H     1148.726    -368.843     650.240
  H     1147.514    -369.430     651.353
  H     1149.115    -370.130     651.356

 6  7  8  9  10  11  12  13  14  15  25  28  32  33  34  35 0
 6-311+G(2d,p)
 ****
 36  39  40 0
 6-311+G(2d,p)
 ****
 1  2  3  4  5  16  17  18  19  20  21  22  23  24 0
 3-21G
 ****
 26  27  29  30  31  37  38  41  42  43  44  45  46  47  48 0
 3-21G
 ****


