%nproc=1
%NoSave
%Mem=1900MB
#P OB98/GEN NMR

erre ene a

0 1
  C      432.637    -332.216    -101.738
  O      431.860    -332.486    -102.888
  H      433.449    -332.951    -101.681
  H      432.036    -332.290    -100.828
  H      433.082    -331.216    -101.810
  P      430.464    -331.709    -103.053
  C      428.907    -331.120    -101.077
  O      429.569    -332.162    -101.797
  C      428.464    -331.609     -99.693
  O      429.588    -331.634     -98.793
  C      427.438    -330.706     -99.025
  O      426.168    -330.720     -99.640
  C      427.569    -331.091     -97.555
  O      426.776    -332.214     -97.190
  C      429.071    -331.456     -97.457
  N      429.831    -330.458     -96.709
  C      429.445    -330.275     -95.384
  O      428.513    -330.879     -94.852
  N      430.145    -329.322     -94.686
  C      431.132    -328.524     -95.195
  O      431.690    -327.663     -94.529
  C      431.476    -328.749     -96.608
  C      430.822    -329.691     -97.293
  O      429.780    -331.878    -104.375
  O      430.830    -330.191    -102.708
  H      425.887    -332.072     -97.562
  H      430.130    -329.573    -103.027
  H      429.887    -329.179     -93.722
  H      432.252    -328.132     -97.044
  H      431.055    -329.875     -98.339
  H      429.190    -332.421     -96.945
  H      427.281    -330.264     -96.898
  H      427.798    -329.667     -99.103
  H      428.086    -332.632     -99.791
  H      428.024    -330.827    -101.653
  H      429.575    -330.258    -100.984
  P      425.052    -329.607     -99.372
  C      424.262    -328.296     -97.277
  O      424.810    -329.500     -97.786
  O      423.863    -329.620    -100.278
  O      425.878    -328.252     -99.684
  H      425.254    -327.609    -100.076
  H      424.159    -328.372     -96.215
  H      423.301    -328.127     -97.717
  H      424.912    -327.480     -97.515

 6  7  8  9  10  11  12  13  14  15  16  26  31  32  33  34  35 0
 6-311+G(2d,p)
 ****
 36  37 0
 6-311+G(2d,p)
 ****
 1  2  3  4  5  17  18  19  20  21  22  23  24  25 0
 3-21G
 ****
 27  28  29  30  38  39  40  41  42  43  44  45 0
 3-21G
 ****


