%nproc=1
%NoSave
%Mem=1900MB
#P OB98/GEN NMR

erre ene a

0 1
  C       36.058    -172.099     -68.862
  O       36.253    -170.802     -69.401
  P       35.167    -170.259     -70.453
  C       34.327    -171.052     -72.784
  O       35.296    -171.189     -71.753
  C       34.051    -172.405     -73.432
  O       33.602    -173.362     -72.453
  C       32.960    -172.379     -74.495
  O       33.436    -171.912     -75.747
  C       32.597    -173.851     -74.579
  O       33.559    -174.550     -75.393
  C       32.715    -174.294     -73.115
  N       28.739    -177.169     -71.872
  C       29.958    -177.531     -72.408
  N       30.115    -178.840     -72.711
  N       30.935    -176.693     -72.629
  C       30.633    -175.417     -72.284
  C       29.463    -174.936     -71.740
  C       28.383    -175.875     -71.518
  O       27.264    -175.604     -71.095
  N       29.531    -173.586     -71.521
  C       30.741    -173.247     -71.923
  N       31.432    -174.314     -72.436
  O       35.785    -168.864     -70.936
  O       33.790    -170.106     -69.903
  H       33.391    -174.279     -76.318
  H       35.094    -168.324     -71.363
  H       28.015    -177.853     -71.729
  H       31.148    -172.245     -71.881
  H       33.159    -175.290     -73.023
  H       31.616    -174.023     -75.029
  H       29.379    -179.524     -72.626
  H       32.088    -171.808     -74.153
  H       30.975    -179.123     -73.165
  H       34.993    -172.773     -73.860
  H       34.696    -170.352     -73.536
  H       33.405    -170.643     -72.358
  P       32.328    -171.452     -76.816
  C       30.431    -172.787     -77.984
  O       31.728    -172.809     -77.416
  O       33.208    -170.856     -78.012
  O       31.340    -170.463     -76.293
  H       32.697    -170.193     -78.513
  H       30.291    -173.700     -78.572
  H       30.307    -171.925     -78.646
  H       29.680    -172.759     -77.194
  H       36.852    -172.326     -68.182
  H       36.052    -172.817     -69.655
  H       35.123    -172.133     -68.343

 3  4  5  6  7  8  9  10  11  12  23  26  30  31 0
 6-311+G(2d,p)
 ****
 33  35  36  37  38 0
 6-311+G(2d,p)
 ****
 1  2  13  14  15  16  17  18  19  20  21  22  24  25 0
 3-21G
 ****
 27  28  29  32  34  39  40  41  42  43  44  45  46  47  48  49 0
 3-21G
 ****


