%nproc=1
%NoSave
%Mem=1900MB
#P OB98/GEN NMR

erre ene a

0 1
  C      316.262    -210.975    -331.791
  O      316.046    -211.043    -333.205
  P      316.406    -212.416    -333.959
  C      313.927    -213.193    -333.901
  O      315.087    -212.964    -334.686
  C      313.085    -214.322    -334.503
  O      312.014    -214.721    -333.627
  C      312.408    -213.946    -335.815
  O      313.301    -214.070    -336.920
  C      311.317    -215.000    -335.899
  O      311.872    -216.244    -336.379
  C      310.893    -215.145    -334.436
  N      305.898    -215.247    -333.294
  C      306.763    -216.225    -333.638
  N      308.073    -216.119    -333.943
  C      308.478    -214.842    -333.856
  C      307.707    -213.736    -333.524
  C      306.354    -213.976    -333.230
  N      305.476    -212.976    -332.880
  N      308.466    -212.581    -333.547
  C      309.677    -212.985    -333.878
  N      309.733    -214.341    -334.083
  O      316.619    -213.442    -332.751
  O      317.622    -212.330    -334.819
  H      312.306    -216.055    -337.230
  H      317.311    -214.087    -332.980
  H      306.353    -217.230    -333.669
  H      310.538    -212.341    -333.976
  H      310.659    -216.182    -334.162
  H      310.515    -214.726    -336.592
  H      311.962    -212.945    -335.755
  H      313.743    -215.187    -334.667
  H      313.330    -212.277    -333.829
  H      304.529    -213.226    -332.658
  H      305.819    -212.025    -332.808
  H      314.230    -213.441    -332.875
  P      313.214    -212.947    -338.061
  C      314.671    -211.230    -336.767
  O      314.539    -212.065    -337.904
  O      312.038    -211.990    -337.538
  O      312.935    -213.483    -339.426
  H      311.574    -211.587    -338.295
  H      315.722    -210.951    -336.664
  H      314.357    -211.752    -335.857
  H      314.075    -210.324    -336.903
  H      315.979    -210.007    -331.433
  H      317.297    -211.145    -331.580
  H      315.671    -211.722    -331.304

 3  4  5  6  7  8  9  10  11  12  22  25  29  30  31  32 0
 6-311+G(2d,p)
 ****
 33  36  37 0
 6-311+G(2d,p)
 ****
 1  2  13  14  15  16  17  18  19  20  21  23  24  26 0
 3-21G
 ****
 27  28  34  35  38  39  40  41  42  43  44  45  46  47  48 0
 3-21G
 ****


