%nproc=1
%NoSave
%Mem=1900MB
#P OB98/GEN NMR

erre ene a

0 1
  C      -52.336     196.065     -72.754
  O      -51.289     196.790     -72.144
  H      -53.289     196.408     -72.343
  H      -52.229     194.996     -72.550
  H      -52.333     196.239     -73.833
  P      -49.791     196.368     -72.531
  C      -49.612     194.673     -70.570
  O      -49.093     195.844     -71.187
  C      -48.519     194.007     -69.738
  O      -47.456     193.546     -70.605
  C      -47.849     194.938     -68.737
  O      -48.622     195.133     -67.566
  C      -46.560     194.183     -68.461
  O      -46.740     193.178     -67.452
  C      -46.241     193.551     -69.828
  N      -45.156     194.253     -70.508
  C      -43.871     193.806     -70.215
  O      -43.637     192.880     -69.440
  N      -42.850     194.486     -70.819
  C      -42.984     195.578     -71.625
  O      -42.022     196.177     -72.090
  C      -44.364     196.016     -71.885
  C      -45.372     195.347     -71.321
  O      -49.077     197.773     -72.808
  O      -49.680     195.444     -73.698
  H      -48.942     197.891     -73.767
  H      -45.851     192.811     -67.277
  H      -41.911     194.176     -70.621
  H      -44.507     196.882     -72.521
  H      -46.399     195.658     -71.489
  H      -45.943     192.502     -69.704
  H      -45.782     194.855     -68.109
  H      -47.605     195.896     -69.214
  H      -48.951     193.137     -69.227
  H      -49.949     193.970     -71.339
  H      -50.468     194.947     -69.947
  P      -49.411     196.522     -67.414
  C      -48.166     196.377     -65.100
  O      -49.133     197.021     -65.916
  O      -50.924     196.001     -67.396
  O      -49.092     197.500     -68.492
  H      -50.987     195.090     -67.058
  H      -48.131     196.855     -64.144
  H      -47.205     196.442     -65.567
  H      -48.433     195.348     -64.975

 6  7  8  9  10  11  12  13  14  15  16  27  31  32  33  34  35 0
 6-311+G(2d,p)
 ****
 36  37 0
 6-311+G(2d,p)
 ****
 1  2  3  4  5  17  18  19  20  21  22  23  24  25 0
 3-21G
 ****
 26  28  29  30  38  39  40  41  42  43  44  45 0
 3-21G
 ****


