%nproc=1
%NoSave
%Mem=1900MB
#P OB98/GEN NMR

erre ene a

0 1
  C      131.158    -128.359    -281.527
  O      131.135    -127.064    -280.955
  H      131.442    -128.288    -282.580
  H      131.905    -128.960    -281.002
  H      130.184    -128.843    -281.433
  P      129.915    -126.106    -281.360
  C      128.972    -125.852    -278.954
  O      129.591    -125.213    -280.063
  C      129.575    -125.351    -277.644
  O      130.902    -125.938    -277.490
  C      129.732    -123.824    -277.563
  O      129.425    -123.406    -276.228
  C      131.213    -123.606    -277.819
  O      131.697    -122.397    -277.247
  C      131.809    -124.865    -277.191
  N      136.738    -125.155    -275.965
  C      135.619    -125.149    -275.208
  N      134.335    -125.124    -275.621
  C      134.266    -125.176    -276.964
  C      135.317    -125.197    -277.864
  C      136.610    -125.168    -277.312
  N      137.756    -125.108    -278.076
  N      134.838    -125.192    -279.162
  C      133.525    -125.144    -279.042
  N      133.133    -125.129    -277.732
  O      128.682    -127.128    -281.429
  O      130.086    -125.348    -282.633
  H      132.670    -122.377    -277.334
  H      128.629    -127.517    -282.322
  H      135.773    -125.151    -274.133
  H      132.823    -125.083    -279.861
  H      131.910    -124.785    -276.103
  H      131.398    -123.581    -278.897
  H      129.100    -123.279    -278.271
  H      128.963    -125.720    -276.813
  H      129.134    -126.933    -279.027
  H      138.632    -124.986    -277.592
  H      137.670    -125.006    -279.074
  H      127.897    -125.652    -278.976
  P      128.901    -121.905    -276.018
  C      126.344    -122.216    -275.635
  O      127.619    -121.937    -275.061
  O      128.287    -121.532    -277.451
  O      129.974    -120.942    -275.615
  H      128.409    -120.581    -277.633
  H      125.597    -122.201    -274.869
  H      126.364    -123.182    -276.095
  H      126.115    -121.475    -276.372

 6  7  8  9  10  11  12  13  14  15  25  28  32  33  34  35 0
 6-311+G(2d,p)
 ****
 36  39  40 0
 6-311+G(2d,p)
 ****
 1  2  3  4  5  16  17  18  19  20  21  22  23  24 0
 3-21G
 ****
 26  27  29  30  31  37  38  41  42  43  44  45  46  47 0
 3-21G
 ****
 48 0
 3-21G
 ****


