%nproc=1
%NoSave
%Mem=1900MB
#P OB98/GEN NMR

erre ene a

0 1
  C      118.011     286.041     225.275
  O      118.732     284.857     225.018
  H      116.954     285.860     225.069
  H      118.366     286.837     224.615
  H      118.116     286.356     226.317
  P      120.189     284.690     225.654
  C      121.270     284.299     223.342
  O      121.273     285.078     224.532
  C      121.437     285.169     222.096
  O      120.532     286.294     222.166
  C      122.849     285.747     221.967
  O      123.771     284.901     221.302
  C      122.599     287.021     221.163
  O      122.640     286.764     219.751
  C      121.184     287.434     221.592
  N      121.205     292.500     222.295
  C      121.397     291.786     221.128
  N      121.665     292.518     220.024
  N      121.349     290.482     221.065
  C      121.173     289.885     222.266
  C      120.989     290.488     223.491
  C      120.973     291.931     223.541
  O      120.792     292.610     224.546
  N      120.885     289.557     224.498
  C      121.087     288.402     223.893
  N      121.187     288.545     222.526
  O      120.366     283.098     225.767
  O      120.390     285.341     226.990
  H      123.579     286.772     219.473
  H      120.929     282.887     226.534
  H      121.226     293.501     222.277
  H      121.129     287.439     224.382
  H      120.583     287.748     220.730
  H      123.365     287.769     221.371
  H      121.798     293.515     220.034
  H      123.240     286.033     222.947
  H      121.998     292.029     219.193
  H      121.159     284.588     221.208
  H      120.311     283.782     223.312
  H      122.054     283.537     223.385
  P      125.117     284.429     222.022
  C      126.614     284.843     219.905
  O      126.355     285.097     221.268
  O      125.225     282.885     221.612
  O      125.153     284.619     223.504
  H      124.898     282.315     222.331
  H      127.484     285.386     219.600
  H      125.775     285.155     219.318
  H      126.779     283.795     219.763

 6  7  8  9  10  11  12  13  14  15  26  29  33  34 0
 6-311+G(2d,p)
 ****
 36  38  39  40  41 0
 6-311+G(2d,p)
 ****
 1  2  3  4  5  16  17  18  19  20  21  22  23  24  25 0
 3-21G
 ****
 27  28  30  31  32  35  37  42  43  44  45  46  47 0
 3-21G
 ****
 48  49 0
 3-21G
 ****


