%nproc=1
%NoSave
%Mem=1900MB
#P OB98/GEN NMR

erre ene a

0 1
  C       -0.899    -403.741     101.993
  O       -1.947    -403.395     101.109
  H       -1.327    -403.938     102.980
  H       -0.181    -402.921     102.081
  H       -0.395    -404.648     101.648
  P       -1.567    -402.945      99.614
  C       -2.469    -405.289      98.960
  O       -1.429    -404.333      98.806
  C       -3.111    -405.592      97.612
  O       -2.143    -406.117      96.678
  C       -4.218    -406.644      97.649
  O       -5.431    -406.171      98.212
  C       -4.345    -406.949      96.166
  O       -5.064    -405.890      95.515
  C       -2.857    -406.963      95.730
  N       -2.280    -408.309      95.712
  C       -2.405    -409.027      94.515
  O       -2.972    -408.525      93.541
  N       -1.909    -410.306      94.458
  C       -1.359    -410.834      95.506
  N       -0.930    -412.125      95.412
  C       -1.195    -410.112      96.784
  C       -1.676    -408.874      96.818
  O       -0.409    -402.012      99.480
  O       -2.930    -402.358      99.013
  H       -4.595    -405.057      95.717
  H       -2.745    -402.056      98.091
  H       -0.735    -410.602      97.631
  H       -1.610    -408.283      97.727
  H       -2.736    -406.510      94.739
  H       -4.886    -407.881      95.961
  H       -3.876    -407.551      98.166
  H       -3.478    -404.641      97.195
  H       -1.098    -412.607      94.530
  H       -3.203    -404.884      99.667
  H       -0.756    -412.690      96.233
  H       -2.065    -406.222      99.370
  P       -6.441    -407.249      98.841
  C       -5.480    -406.949     101.247
  O       -5.737    -407.828     100.162
  O       -6.358    -408.466      97.800
  O       -7.848    -406.773      99.057
  H       -7.065    -408.409      97.137
  H       -5.011    -407.491     102.041
  H       -6.402    -406.533     101.595
  H       -4.833    -406.161     100.922

 6  7  8  9  10  11  12  13  14  15  16  26  30  31  32  33  35 0
 6-311+G(2d,p)
 ****
 37  38 0
 6-311+G(2d,p)
 ****
 1  2  3  4  5  17  18  19  20  21  22  23  24  25 0
 3-21G
 ****
 27  28  29  34  36  39  40  41  42  43  44  45  46 0
 3-21G
 ****


