%nproc=1
%NoSave
%Mem=1900MB
#P OB98/GEN NMR

erre ene a

0 1
  C     -158.018    -137.665    -266.215
  O     -158.804    -138.787    -265.883
  H     -158.687    -136.825    -266.430
  H     -157.421    -137.866    -267.108
  H     -157.367    -137.388    -265.380
  P     -158.078    -140.183    -265.560
  C     -157.989    -140.971    -268.004
  O     -157.228    -140.537    -266.884
  C     -157.090    -141.219    -269.217
  O     -156.076    -142.203    -268.878
  C     -157.846    -141.735    -270.452
  O     -157.437    -141.001    -271.609
  C     -157.383    -143.180    -270.574
  O     -157.498    -143.691    -271.898
  C     -155.957    -143.074    -270.018
  N     -155.408    -144.378    -269.671
  C     -154.922    -145.143    -270.738
  O     -154.968    -144.709    -271.890
  N     -154.450    -146.406    -270.481
  C     -154.502    -146.878    -269.274
  N     -154.041    -148.150    -269.094
  C     -155.030    -146.117    -268.126
  C     -155.463    -144.883    -268.392
  O     -158.993    -141.267    -265.089
  O     -156.940    -139.820    -264.497
  H     -158.437    -143.613    -272.181
  H     -156.698    -140.633    -263.995
  H     -155.054    -146.560    -267.141
  H     -155.867    -144.244    -267.613
  H     -155.289    -142.593    -270.747
  H     -157.993    -143.809    -269.915
  H     -158.927    -141.670    -270.353
  H     -156.547    -140.290    -269.443
  H     -153.691    -148.640    -269.911
  H     -158.740    -140.207    -268.233
  H     -154.053    -148.629    -268.207
  H     -158.494    -141.906    -267.738
  P     -158.275    -139.669    -271.936
  C     -160.023    -141.039    -273.283
  O     -159.789    -140.101    -272.243
  O     -157.703    -139.217    -273.363
  O     -158.109    -138.597    -270.912
  H     -157.176    -138.401    -273.263
  H     -161.073    -141.225    -273.366
  H     -159.516    -141.954    -273.059
  H     -159.656    -140.645    -274.208

 6  7  8  9  10  11  12  13  14  15  16  26  30  31  32  33  35 0
 6-311+G(2d,p)
 ****
 37  38 0
 6-311+G(2d,p)
 ****
 1  2  3  4  5  17  18  19  20  21  22  23  24  25 0
 3-21G
 ****
 27  28  29  34  36  39  40  41  42  43  44  45  46 0
 3-21G
 ****


