%nproc=1
%NoSave
%Mem=1900MB
#P OB98/GEN NMR

erre ene a

0 1
  C     -542.581      74.521     348.651
  O     -541.975      73.903     349.789
  P     -542.929      73.154     350.845
  C     -541.051      73.424     352.690
  O     -542.067      72.646     352.094
  C     -540.034      72.482     353.368
  O     -540.714      71.542     354.228
  C     -539.218      71.653     352.377
  O     -538.070      72.353     351.920
  C     -538.890      70.413     353.187
  O     -537.813      70.682     354.103
  C     -540.219      70.203     353.952
  N     -541.293      69.427     353.286
  C     -541.327      68.043     353.416
  O     -540.510      67.381     354.060
  N     -542.364      67.402     352.780
  C     -543.444      68.007     352.185
  O     -544.373      67.384     351.686
  C     -543.429      69.472     352.213
  C     -542.375      70.099     352.733
  O     -543.339      71.805     350.096
  O     -544.129      73.949     351.272
  H     -538.122      71.395     354.698
  H     -544.305      71.789     349.924
  H     -542.371      66.398     352.802
  H     -544.284      69.992     351.794
  H     -542.362      71.190     352.753
  H     -540.034      69.716     354.923
  H     -538.548      69.592     352.545
  H     -539.848      71.346     351.532
  H     -539.355      73.085     353.989
  H     -541.458      74.107     353.427
  H     -540.548      74.024     351.928
  P     -537.894      72.674     350.365
  C     -535.324      72.709     350.361
  O     -536.501      73.475     350.233
  O     -539.066      73.300     349.677
  O     -537.526      71.237     349.724
  H     -538.323      70.799     349.361
  H     -534.469      73.342     350.108
  H     -535.357      71.848     349.689
  H     -535.210      72.364     351.392
  H     -541.824      74.974     348.046
  H     -543.272      75.269     348.978
  H     -543.100      73.782     348.078

 3  4  5  6  7  8  9  10  11  12  13  23  28  29  30  31  32 0
 6-311+G(2d,p)
 ****
 33  34 0
 6-311+G(2d,p)
 ****
 1  2  14  15  16  17  18  19  20  21  22  24  25  26  27 0
 3-21G
 ****
 35  36  37  38  39  40  41  42  43  44  45 0
 3-21G
 ****


