%nproc=1
%NoSave
%Mem=1900MB
#P OB98/GEN NMR

erre ene a

0 1
  C      107.174     423.776     440.069
  O      106.788     422.418     439.944
  P      106.336     421.645     441.277
  C      103.878     422.462     441.068
  O      105.059     422.426     441.858
  C      102.631     422.420     441.954
  O      101.473     422.775     441.145
  C      102.342     421.049     442.588
  O      101.771     421.304     443.877
  C      101.311     420.466     441.636
  O      100.582     419.375     442.170
  C      100.502     421.718     441.313
  N       96.386     419.434     439.315
  C       96.902     419.428     440.564
  N       97.995     420.066     441.023
  C       98.573     420.782     440.046
  C       98.173     420.874     438.722
  C       97.022     420.157     438.363
  N       96.503     420.159     437.080
  N       99.033     421.681     438.002
  C       99.935     422.075     438.880
  N       99.688     421.571     440.129
  O      107.494     422.011     442.316
  O      106.165     420.164     441.123
  H      100.094     419.659     442.966
  H      107.713     421.246     442.882
  H       96.360     418.827     441.294
  H      100.789     422.699     438.658
  H       99.839     422.003     442.141
  H      101.826     420.101     440.738
  H      103.235     420.430     442.709
  H      102.731     423.185     442.734
  H      103.858     421.592     440.404
  H       95.801     419.463     436.881
  H       97.097     420.524     436.344
  H      103.886     423.363     440.445
  P      102.142     420.331     445.097
  C      104.334     421.667     444.994
  O      103.747     420.392     445.162
  O      101.904     418.892     444.424
  O      101.393     420.553     446.363
  H      102.364     418.818     443.567
  H      105.413     421.580     445.158
  H      103.923     422.379     445.712
  H      104.163     422.021     443.973
  H      107.448     424.159     439.108
  H      108.010     423.850     440.733
  H      106.356     424.345     440.460

 3  4  5  6  7  8  9  10  11  12  22  25  29  30  31  32 0
 6-311+G(2d,p)
 ****
 33  36  37 0
 6-311+G(2d,p)
 ****
 1  2  13  14  15  16  17  18  19  20  21  23  24  26 0
 3-21G
 ****
 27  28  34  35  38  39  40  41  42  43  44  45  46  47  48 0
 3-21G
 ****


