%nproc=1
%NoSave
%Mem=1900MB
#P OB98/GEN NMR

erre ene a

0 1
  C       64.363    -104.920     -74.092
  O       65.205    -105.856     -74.743
  P       66.486    -105.375     -75.582
  C       68.338    -105.278     -73.802
  O       67.740    -106.044     -74.841
  C       68.674    -106.176     -72.615
  O       67.474    -106.882     -72.222
  C       69.713    -107.266     -72.876
  O       71.062    -106.838     -72.754
  C       69.391    -108.238     -71.749
  O       69.957    -107.758     -70.515
  C       67.863    -108.174     -71.692
  N       64.355    -111.896     -71.620
  C       64.732    -110.990     -70.690
  N       65.689    -110.042     -70.779
  C       66.254    -110.055     -71.997
  C       65.973    -110.913     -73.047
  C       64.970    -111.872     -72.825
  N       64.572    -112.779     -73.783
  N       66.776    -110.631     -74.135
  C       67.516    -109.614     -73.749
  N       67.232    -109.224     -72.469
  O       66.567    -103.905     -75.798
  O       66.395    -106.200     -76.948
  H       70.915    -107.649     -70.666
  H       66.969    -105.790     -77.623
  H       64.197    -111.035     -69.745
  H       68.268    -109.132     -74.356
  H       67.477    -108.234     -70.668
  H       69.801    -109.238     -71.919
  H       69.539    -107.761     -73.838
  H       68.980    -105.539     -71.776
  H       67.620    -104.514     -73.483
  H       63.760    -113.339     -73.580
  H       64.913    -112.655     -74.726
  H       69.229    -104.775     -74.182
  P       72.185    -107.742     -73.468
  C       72.275    -106.073     -75.481
  O       72.967    -106.754     -74.458
  O       71.671    -108.994     -74.085
  O       73.238    -107.993     -72.289
  H       73.719    -107.206     -71.988
  H       72.948    -105.338     -75.932
  H       71.404    -105.548     -75.082
  H       71.958    -106.779     -76.254
  H       63.572    -105.439     -73.592
  H       63.948    -104.250     -74.816
  H       64.933    -104.364     -73.377

 3  4  5  6  7  8  9  10  11  12  22  25  29  30  31  32 0
 6-311+G(2d,p)
 ****
 33  36  37 0
 6-311+G(2d,p)
 ****
 1  2  13  14  15  16  17  18  19  20  21  23  24  26 0
 3-21G
 ****
 27  28  34  35  38  39  40  41  42  43  44  45  46  47  48 0
 3-21G
 ****


