%nproc=1
%NoSave
%Mem=1900MB
#P OB98/GEN NMR

erre ene a

0 1
  C     -424.896     316.940    -177.014
  O     -425.486     317.865    -176.105
  P     -426.434     317.294    -174.943
  C     -425.690     315.464    -173.176
  O     -425.541     316.756    -173.731
  C     -425.459     315.545    -171.656
  O     -424.160     316.091    -171.368
  C     -426.483     316.423    -170.939
  O     -427.654     315.702    -170.596
  C     -425.692     316.900    -169.733
  O     -425.628     315.864    -168.730
  C     -424.299     317.131    -170.361
  N     -424.036     318.446    -171.000
  C     -422.859     319.135    -170.702
  O     -421.998     318.738    -169.922
  N     -422.687     320.334    -171.357
  C     -423.460     320.815    -172.372
  O     -423.222     321.865    -172.962
  C     -424.601     319.974    -172.748
  C     -424.840     318.857    -172.057
  O     -427.059     315.970    -175.574
  O     -427.492     318.252    -174.486
  H     -425.156     316.233    -167.965
  H     -428.024     316.062    -175.677
  H     -421.882     320.882    -171.096
  H     -425.213     320.298    -173.584
  H     -425.687     318.232    -172.327
  H     -423.511     316.982    -169.612
  H     -426.177     317.753    -169.262
  H     -426.729     317.295    -171.550
  H     -425.501     314.521    -171.246
  H     -424.979     314.767    -173.624
  H     -426.692     315.083    -173.389
  P     -428.958     315.809    -171.525
  C     -429.317     314.768    -173.846
  O     -428.883     314.539    -172.522
  O     -429.194     317.129    -172.180
  O     -430.157     315.397    -170.539
  H     -430.584     316.201    -170.161
  H     -429.063     313.886    -174.450
  H     -428.805     315.638    -174.266
  H     -430.394     314.909    -173.868
  H     -424.297     317.471    -177.724
  H     -425.667     316.404    -177.528
  H     -424.282     316.251    -176.473

 3  4  5  6  7  8  9  10  11  12  13  23  28  29  30  31  32 0
 6-311+G(2d,p)
 ****
 33  34 0
 6-311+G(2d,p)
 ****
 1  2  14  15  16  17  18  19  20  21  22  24  25  26  27 0
 3-21G
 ****
 35  36  37  38  39  40  41  42  43  44  45 0
 3-21G
 ****


