%nproc=1
%NoSave
%Mem=1900MB
#P OB98/GEN NMR

erre ene a

0 1
  C      -42.699     -11.796     -37.920
  O      -43.518     -10.865     -38.590
  H      -43.296     -12.302     -37.157
  H      -41.874     -11.273     -37.430
  H      -42.300     -12.547     -38.607
  P      -43.056     -10.323     -40.022
  C      -44.198      -9.118     -41.997
  O      -44.371      -9.970     -40.872
  C      -44.675      -9.782     -43.288
  O      -43.656     -10.680     -43.779
  C      -45.941     -10.620     -43.084
  O      -47.152      -9.894     -43.200
  C      -45.815     -11.657     -44.198
  O      -46.402     -11.183     -45.421
  C      -44.300     -11.823     -44.358
  N      -43.144     -16.769     -44.941
  C      -43.818     -15.928     -45.808
  N      -44.265     -16.493     -46.950
  N      -44.037     -14.665     -45.558
  C      -43.618     -14.271     -44.335
  C      -42.958     -15.017     -43.384
  C      -42.653     -16.396     -43.699
  O      -42.046     -17.176     -42.974
  N      -42.725     -14.288     -42.242
  C      -43.321     -13.135     -42.473
  N      -43.805     -13.049     -43.757
  O      -42.512     -11.640     -40.761
  O      -42.001      -9.259     -39.999
  H      -46.549     -11.953     -46.004
  H      -41.796     -11.397     -41.375
  H      -42.979     -17.725     -45.200
  H      -43.390     -12.315     -41.768
  H      -44.011     -11.849     -45.416
  H      -46.340     -12.578     -43.933
  H      -44.200     -17.476     -47.153
  H      -45.906     -11.145     -42.125
  H      -44.925     -15.962     -47.522
  H      -44.823      -9.014     -44.058
  H      -43.131      -8.901     -42.061
  H      -44.718      -8.169     -41.840
  P      -48.555     -10.578     -42.859
  C      -50.951      -9.689     -42.255
  O      -49.568      -9.441     -42.383
  O      -48.245     -11.385     -41.513
  O      -49.115     -11.461     -43.925
  H      -48.079     -12.326     -41.706
  H      -51.444      -8.798     -41.926
  H      -51.109     -10.469     -41.540
  H      -51.349      -9.987     -43.202

 6  7  8  9  10  11  12  13  14  15  26  29  33  34 0
 6-311+G(2d,p)
 ****
 36  38  39  40  41 0
 6-311+G(2d,p)
 ****
 1  2  3  4  5  16  17  18  19  20  21  22  23  24  25 0
 3-21G
 ****
 27  28  30  31  32  35  37  42  43  44  45  46  47 0
 3-21G
 ****
 48  49 0
 3-21G
 ****


