%nproc=1
%NoSave
%Mem=1900MB
#P OB98/GEN NMR

erre ene a

0 1
  C       82.768      -8.217      64.694
  O       83.972      -8.138      65.442
  P       85.344      -7.661      64.756
  C       86.901      -8.723      63.007
  O       85.893      -8.956      63.983
  C       87.820      -9.937      62.899
  O       88.589     -10.036      64.122
  C       87.122     -11.292      62.753
  O       86.759     -11.628      61.423
  C       88.229     -12.228      63.225
  O       89.191     -12.419      62.168
  C       88.857     -11.440      64.376
  N       89.080     -14.832      68.205
  C       89.787     -14.715      67.054
  N       89.654     -13.794      66.074
  C       88.703     -12.899      66.395
  C       87.905     -12.886      67.529
  C       88.124     -13.912      68.465
  N       87.418     -14.014      69.646
  N       87.023     -11.820      67.494
  C       87.299     -11.201      66.366
  N       88.309     -11.808      65.670
  O       86.302      -7.002      65.684
  O       84.876      -6.704      63.564
  H       89.923     -12.946      62.543
  H       85.627      -6.160      63.254
  H       90.558     -15.467      66.895
  H       86.792     -10.315      66.007
  H       89.947     -11.561      64.426
  H       87.857     -13.221      63.500
  H       86.266     -11.376      63.434
  H       88.522      -9.771      62.071
  H       87.490      -7.853      63.318
  H       87.731     -14.704      70.314
  H       86.823     -13.245      69.915
  H       86.434      -8.494      62.042
  P       85.299     -12.269      61.202
  C       84.155     -14.460      62.066
  O       85.332     -13.687      61.952
  O       84.844     -12.299      59.784
  O       84.371     -11.369      62.153
  H       84.537     -11.467      63.105
  H       84.423     -15.447      62.458
  H       83.680     -14.591      61.092
  H       83.459     -13.982      62.759
  H       81.975      -8.553      65.329
  H       82.895      -8.907      63.886
  H       82.527      -7.251      64.303

 3  4  5  6  7  8  9  10  11  12  22  25  29  30  31  32 0
 6-311+G(2d,p)
 ****
 33  36  37 0
 6-311+G(2d,p)
 ****
 1  2  13  14  15  16  17  18  19  20  21  23  24  26 0
 3-21G
 ****
 27  28  34  35  38  39  40  41  42  43  44  45  46  47  48 0
 3-21G
 ****


