%nproc=1
%NoSave
%Mem=1900MB
#P OB98/GEN NMR

erre ene a

0 1
  C       49.818    -409.112      -8.975
  O       49.762    -408.036      -8.060
  H       49.530    -410.029      -8.459
  H       50.838    -409.223      -9.351
  H       49.129    -408.943      -9.809
  P       49.916    -406.555      -8.651
  C       47.618    -406.906      -9.828
  O       48.970    -406.479      -9.951
  C       46.686    -405.868     -10.454
  O       46.963    -405.798     -11.881
  C       45.191    -406.191     -10.290
  O       44.476    -404.962     -10.106
  C       44.820    -406.793     -11.637
  O       43.435    -406.705     -11.939
  C       45.704    -405.963     -12.570
  N       45.896    -406.597     -13.873
  C       45.936    -405.767     -14.992
  O       45.903    -404.544     -14.957
  N       46.011    -406.411     -16.201
  C       46.024    -407.763     -16.400
  O       46.073    -408.278     -17.513
  C       45.975    -408.585     -15.177
  C       45.909    -407.979     -13.992
  O       51.392    -406.567      -9.272
  O       49.715    -405.445      -7.674
  H       52.044    -406.288      -8.604
  H       43.264    -407.285     -12.709
  H       46.039    -405.827     -17.016
  H       45.976    -409.663     -15.295
  H       45.844    -408.549     -13.077
  H       45.275    -404.966     -12.715
  H       45.105    -407.845     -11.664
  H       44.969    -406.876      -9.458
  H       46.920    -404.880     -10.034
  H       47.372    -407.015      -8.765
  H       47.499    -407.878     -10.321
  P       43.555    -404.832      -8.803
  C       45.392    -403.840      -7.220
  O       44.551    -404.937      -7.552
  O       42.792    -406.236      -8.823
  O       42.671    -403.630      -8.831
  H       43.347    -406.962      -9.148
  H       45.983    -404.090      -6.364
  H       44.790    -402.983      -7.001
  H       46.036    -403.622      -8.046

 6  7  8  9  10  11  12  13  14  15  16  27  31  32  33  34  35 0
 6-311+G(2d,p)
 ****
 36  37 0
 6-311+G(2d,p)
 ****
 1  2  3  4  5  17  18  19  20  21  22  23  24  25 0
 3-21G
 ****
 26  28  29  30  38  39  40  41  42  43  44  45 0
 3-21G
 ****


