%nproc=1
%NoSave
%Mem=1900MB
#P OB98/GEN NMR

erre ene a

0 1
  C      133.044     296.771    -208.029
  O      132.448     296.146    -206.916
  P      131.335     295.012    -207.136
  C      132.908     293.155    -206.286
  O      131.649     293.816    -206.108
  C      133.310     292.436    -205.003
  O      133.510     293.381    -203.936
  C      132.271     291.447    -204.485
  O      132.289     290.251    -205.243
  C      132.711     291.287    -203.039
  O      133.788     290.347    -202.936
  C      133.198     292.705    -202.693
  N      132.304     295.055    -198.252
  C      133.303     294.234    -198.664
  N      133.455     293.621    -199.850
  C      132.415     293.891    -200.657
  C      131.295     294.676    -200.373
  C      131.274     295.296    -199.108
  N      130.293     296.173    -198.709
  N      130.434     294.689    -201.444
  C      131.000     293.924    -202.358
  N      132.224     293.472    -201.942
  O      131.120     294.588    -208.554
  O      130.007     295.660    -206.528
  H      133.962     290.195    -201.989
  H      129.327     295.728    -207.227
  H      134.085     294.071    -197.933
  H      130.576     293.673    -203.326
  H      134.120     292.685    -202.107
  H      131.903     290.930    -202.390
  H      131.277     291.908    -204.510
  H      134.265     291.924    -205.182
  H      133.661     293.901    -206.549
  H      130.445     296.677    -197.848
  H      129.698     296.600    -199.426
  H      132.820     292.434    -207.112
  P      130.948     289.394    -205.399
  C      129.818     290.437    -207.454
  O      130.601     289.363    -206.968
  O      129.817     289.783    -204.508
  O      131.426     287.891    -205.121
  H      130.694     287.391    -204.716
  H      128.762     290.282    -207.196
  H      129.899     290.477    -208.546
  H      130.157     291.392    -207.040
  H      133.757     297.494    -207.692
  H      132.290     297.258    -208.611
  H      133.538     296.036    -208.629

 3  4  5  6  7  8  9  10  11  12  22  25  29  30  31  32 0
 6-311+G(2d,p)
 ****
 33  36  37 0
 6-311+G(2d,p)
 ****
 1  2  13  14  15  16  17  18  19  20  21  23  24  26 0
 3-21G
 ****
 27  28  34  35  38  39  40  41  42  43  44  45  46  47  48 0
 3-21G
 ****


