%nproc=1
%NoSave
%Mem=1900MB
#P OB98/GEN NMR

erre ene a

0 1
  C     -409.280     122.500    -973.922
  O     -408.512     123.569    -973.362
  P     -407.034     123.228    -972.822
  C     -407.105     124.978    -970.885
  O     -406.455     124.522    -972.062
  C     -406.358     126.169    -970.286
  O     -404.967     125.842    -969.986
  C     -406.285     127.385    -971.201
  O     -407.484     128.146    -971.131
  C     -405.131     128.144    -970.589
  O     -405.583     128.875    -969.431
  C     -404.171     127.026    -970.172
  N     -399.565     128.440    -971.912
  C     -400.358     128.932    -970.927
  N     -401.577     128.517    -970.544
  C     -401.963     127.451    -971.255
  C     -401.261     126.838    -972.286
  C     -400.012     127.371    -972.603
  N     -399.203     126.837    -973.599
  N     -401.991     125.788    -972.801
  C     -403.099     125.750    -972.085
  N     -403.136     126.750    -971.150
  O     -406.163     123.164    -974.172
  O     -406.940     121.951    -972.055
  H     -404.815     129.362    -969.075
  H     -405.468     122.492    -974.075
  H     -399.955     129.800    -970.380
  H     -403.899     125.032    -972.204
  H     -403.682     127.246    -969.221
  H     -404.699     128.880    -971.268
  H     -406.051     127.084    -972.228
  H     -406.854     126.430    -969.329
  H     -407.169     124.157    -970.156
  H     -398.299     127.282    -973.746
  H     -399.526     126.036    -974.112
  H     -408.135     125.246    -971.132
  P     -408.633     127.808    -972.202
  C     -409.744     130.032    -972.975
  O     -409.724     128.965    -972.046
  O     -409.342     126.502    -971.575
  O     -408.138     127.556    -973.593
  H     -409.694     125.945    -972.296
  H     -410.710     130.538    -972.907
  H     -409.608     129.661    -974.000
  H     -408.947     130.735    -972.739
  H     -410.233     122.872    -974.236
  H     -409.420     121.737    -973.185
  H     -408.761     122.091    -974.764

 3  4  5  6  7  8  9  10  11  12  22  25  29  30  31  32 0
 6-311+G(2d,p)
 ****
 33  36  37 0
 6-311+G(2d,p)
 ****
 1  2  13  14  15  16  17  18  19  20  21  23  24  26 0
 3-21G
 ****
 27  28  34  35  38  39  40  41  42  43  44  45  46  47  48 0
 3-21G
 ****


