%nproc=1
%NoSave
%Mem=1900MB
#P OB98/GEN NMR

erre ene a

0 1
  C     -439.887     -72.538     -98.064
  O     -440.333     -71.728     -96.975
  P     -440.279     -72.339     -95.496
  C     -442.626     -73.405     -95.730
  O     -441.245     -73.618     -95.434
  C     -443.452     -74.654     -95.390
  O     -443.397     -74.875     -93.957
  C     -444.945     -74.550     -95.742
  O     -445.362     -74.957     -97.040
  C     -445.546     -75.561     -94.758
  O     -445.437     -76.889     -95.289
  C     -444.658     -75.431     -93.523
  N     -448.467     -75.026     -90.125
  C     -448.152     -75.995     -91.012
  N     -447.122     -76.022     -91.881
  C     -446.369     -74.920     -91.770
  C     -446.566     -73.856     -90.900
  C     -447.674     -73.928     -90.050
  N     -448.006     -72.937     -89.150
  N     -445.577     -72.893     -91.074
  C     -444.819     -73.376     -92.041
  N     -445.236     -74.591     -92.488
  O     -440.442     -71.358     -94.376
  O     -438.817     -73.013     -95.449
  H     -445.841     -77.488     -94.630
  H     -438.435     -72.885     -94.566
  H     -448.814     -76.855     -91.031
  H     -443.954     -72.862     -92.453
  H     -444.445     -76.405     -93.060
  H     -446.614     -75.379     -94.579
  H     -445.325     -73.553     -95.524
  H     -443.012     -75.533     -95.891
  H     -442.732     -73.170     -96.791
  H     -448.851     -73.054     -88.604
  H     -447.456     -72.096     -89.119
  H     -442.942     -72.524     -95.174
  P     -445.347     -73.935     -98.277
  C     -447.683     -74.502     -99.326
  O     -446.886     -73.599     -98.583
  O     -444.564     -74.396     -99.470
  O     -444.810     -72.592     -97.609
  H     -445.422     -72.176     -96.973
  H     -448.729     -74.206     -99.234
  H     -447.573     -75.527     -98.947
  H     -447.393     -74.465    -100.376
  H     -439.985     -71.992     -98.979
  H     -440.481     -73.427     -98.114
  H     -438.861     -72.802     -97.915

 3  4  5  6  7  8  9  10  11  12  22  25  29  30  31  32 0
 6-311+G(2d,p)
 ****
 33  36  37 0
 6-311+G(2d,p)
 ****
 1  2  13  14  15  16  17  18  19  20  21  23  24  26 0
 3-21G
 ****
 27  28  34  35  38  39  40  41  42  43  44  45  46  47  48 0
 3-21G
 ****


