%nproc=1
%NoSave
%Mem=1900MB
#P OB98/GEN NMR

erre ene a

0 1
  C     -297.772    -176.414    -299.217
  O     -297.037    -176.432    -300.424
  H     -298.261    -175.441    -299.119
  H     -297.098    -176.558    -298.369
  H     -298.537    -177.197    -299.223
  P     -296.309    -177.810    -300.810
  C     -294.574    -176.524    -302.246
  O     -295.559    -177.548    -302.208
  C     -294.278    -176.113    -303.689
  O     -295.497    -175.580    -304.288
  C     -293.192    -175.037    -303.827
  O     -292.455    -175.300    -305.029
  C     -293.999    -173.765    -304.039
  O     -293.243    -172.732    -304.669
  C     -295.153    -174.315    -304.878
  N     -296.695    -169.814    -306.524
  C     -295.491    -170.479    -306.708
  N     -294.554    -169.840    -307.447
  N     -295.234    -171.656    -306.214
  C     -296.273    -172.187    -305.526
  C     -297.506    -171.638    -305.268
  C     -297.772    -170.317    -305.799
  O     -298.807    -169.675    -305.652
  N     -298.276    -172.483    -304.504
  C     -297.507    -173.542    -304.307
  N     -296.285    -173.410    -304.903
  O     -297.540    -178.754    -301.212
  O     -295.471    -178.416    -299.737
  H     -292.428    -172.592    -304.144
  H     -297.830    -179.278    -300.445
  H     -296.838    -168.901    -306.919
  H     -297.789    -174.421    -303.740
  H     -294.859    -174.489    -305.919
  H     -294.363    -173.385    -303.076
  H     -294.702    -168.953    -307.897
  H     -292.504    -174.975    -302.976
  H     -293.683    -170.326    -307.630
  H     -294.013    -177.010    -304.259
  H     -293.653    -176.895    -301.783
  H     -294.933    -175.656    -301.678
  P     -290.857    -175.334    -304.942
  C     -290.215    -175.538    -307.455
  O     -290.306    -176.174    -306.190
  O     -290.586    -176.320    -303.706
  O     -290.223    -173.996    -304.731
  H     -289.738    -176.092    -303.282
  H     -289.832    -176.230    -308.175
  H     -289.558    -174.696    -307.385
  H     -291.186    -175.208    -307.759

 6  7  8  9  10  11  12  13  14  15  26  29  33  34 0
 6-311+G(2d,p)
 ****
 36  38  39  40  41 0
 6-311+G(2d,p)
 ****
 1  2  3  4  5  16  17  18  19  20  21  22  23  24  25 0
 3-21G
 ****
 27  28  30  31  32  35  37  42  43  44  45  46  47 0
 3-21G
 ****
 48  49 0
 3-21G
 ****


