%nproc=1
%NoSave
%Mem=1900MB
#P OB98/GEN NMR

erre ene a

0 1
  C     -459.547     352.918     804.702
  O     -458.350     353.189     805.411
  H     -459.286     352.458     803.740
  H     -460.106     353.843     804.513
  H     -460.160     352.217     805.268
  P     -458.430     354.011     806.786
  C     -458.135     356.379     805.792
  O     -459.042     355.457     806.416
  C     -458.289     357.779     806.419
  O     -457.265     358.641     805.858
  C     -459.661     358.420     806.142
  O     -460.048     359.161     807.305
  C     -459.371     359.362     804.996
  O     -460.300     360.417     804.921
  C     -457.919     359.791     805.284
  N     -457.247     360.248     804.065
  C     -457.113     361.636     803.922
  O     -457.525     362.399     804.805
  N     -456.572     362.150     802.777
  C     -456.240     361.333     801.805
  N     -455.744     361.887     800.668
  C     -456.400     359.857     801.910
  C     -456.906     359.392     803.050
  O     -457.186     354.048     807.607
  O     -459.640     353.306     807.574
  H     -460.316     360.900     805.773
  H     -459.293     352.587     808.135
  H     -456.111     359.218     801.068
  H     -457.054     358.325     803.194
  H     -457.901     360.592     806.029
  H     -459.412     358.801     804.038
  H     -460.437     357.688     805.884
  H     -458.094     357.703     807.497
  H     -455.678     362.893     800.643
  H     -458.391     356.423     804.728
  H     -455.475     361.356     799.836
  H     -457.112     356.026     805.917
  P     -461.266     358.650     808.231
  C     -462.652     360.802     808.078
  O     -462.619     359.403     807.799
  O     -460.990     358.674     809.695
  O     -461.511     357.140     807.741
  H     -461.844     356.611     808.482
  H     -463.588     361.208     807.755
  H     -461.854     361.288     807.558
  H     -462.539     360.959     809.130

 6  7  8  9  10  11  12  13  14  15  16  26  30  31  32  33  35 0
 6-311+G(2d,p)
 ****
 37  38 0
 6-311+G(2d,p)
 ****
 1  2  3  4  5  17  18  19  20  21  22  23  24  25 0
 3-21G
 ****
 27  28  29  34  36  39  40  41  42  43  44  45  46 0
 3-21G
 ****


