%nproc=1
%NoSave
%Mem=1900MB
#P OB98/GEN NMR

erre ene a

0 1
  C     -107.813      25.351     -14.510
  O     -107.256      26.090     -13.439
  H     -108.903      25.409     -14.445
  H     -107.516      24.300     -14.445
  H     -107.496      25.767     -15.468
  P     -105.659      26.152     -13.312
  C     -103.844      24.418     -12.704
  O     -105.218      24.773     -12.621
  C     -103.284      24.161     -11.309
  O     -103.267      25.381     -10.543
  C     -104.088      23.147     -10.495
  O     -103.740      21.823     -10.870
  C     -103.643      23.508      -9.088
  O     -102.324      22.981      -8.845
  C     -103.596      25.046      -9.164
  N     -106.121      27.515      -5.526
  C     -104.871      26.924      -5.495
  N     -104.222      26.962      -4.311
  N     -104.320      26.334      -6.524
  C     -105.116      26.314      -7.618
  C     -106.376      26.849      -7.765
  C     -106.954      27.550      -6.637
  O     -108.051      28.101      -6.626
  N     -106.899      26.575      -9.004
  C     -105.941      25.905      -9.617
  N     -104.842      25.708      -8.813
  O     -105.093      27.370     -12.643
  O     -105.141      25.995     -14.816
  H     -102.113      23.178      -7.914
  H     -105.012      26.864     -15.238
  H     -106.498      27.938      -4.694
  H     -105.989      25.545     -10.637
  H     -102.812      25.470      -8.527
  H     -104.300      23.112      -8.314
  H     -104.708      27.141      -3.440
  H     -105.167      23.324     -10.576
  H     -103.328      26.491      -4.254
  H     -102.241      23.837     -11.419
  H     -103.315      25.250     -13.182
  H     -103.719      23.521     -13.321
  P     -104.865      20.691     -11.054
  C     -106.689      19.802      -9.451
  O     -105.402      20.396      -9.572
  O     -104.421      19.483     -11.809
  O     -106.098      21.454     -11.723
  H     -106.063      21.471     -12.713
  H     -106.921      19.662      -8.416
  H     -106.693      18.855      -9.949
  H     -107.421      20.443      -9.897

 6  7  8  9  10  11  12  13  14  15  26  29  33  34 0
 6-311+G(2d,p)
 ****
 36  38  39  40  41 0
 6-311+G(2d,p)
 ****
 1  2  3  4  5  16  17  18  19  20  21  22  23  24  25 0
 3-21G
 ****
 27  28  30  31  32  35  37  42  43  44  45  46  47 0
 3-21G
 ****
 48  49 0
 3-21G
 ****


