%nproc=1
%NoSave
%Mem=1900MB
#P OB98/GEN NMR

erre ene a

0 1
  C      402.147      36.572    -152.542
  O      402.267      37.513    -153.589
  H      401.228      35.999    -152.693
  H      402.085      37.082    -151.576
  H      402.995      35.880    -152.546
  P      403.541      38.492    -153.597
  C      403.096      40.970    -152.974
  O      403.174      39.626    -152.514
  C      401.641      41.385    -153.156
  O      400.850      41.054    -151.988
  C      401.420      42.884    -153.351
  O      401.802      43.358    -154.629
  C      399.917      42.956    -153.133
  O      399.235      42.459    -154.302
  C      399.742      41.998    -151.929
  N      399.736      42.700    -150.651
  C      398.605      43.483    -150.363
  O      397.681      43.561    -151.170
  N      398.566      44.179    -149.174
  C      399.576      44.129    -148.361
  N      399.482      44.846    -147.202
  C      400.794      43.338    -148.630
  C      400.808      42.658    -149.775
  O      403.970      38.996    -154.938
  O      404.683      37.670    -152.828
  H      399.363      43.120    -155.012
  H      405.497      38.230    -152.814
  H      401.621      43.351    -147.931
  H      401.669      42.055    -150.042
  H      398.812      41.422    -152.023
  H      399.555      43.970    -152.958
  H      401.915      43.457    -152.554
  H      401.234      40.808    -153.998
  H      398.634      45.380    -147.046
  H      403.646      41.040    -153.920
  H      400.249      44.922    -146.549
  H      403.556      41.639    -152.245
  P      401.962      44.951    -154.798
  C      400.074      45.927    -156.328
  O      400.478      45.522    -155.026
  O      402.660      45.097    -156.230
  O      402.726      45.638    -153.708
  H      403.625      45.231    -156.132
  H      399.064      46.278    -156.295
  H      400.141      45.095    -156.997
  H      400.713      46.713    -156.671

 6  7  8  9  10  11  12  13  14  15  16  26  30  31  32  33  35 0
 6-311+G(2d,p)
 ****
 37  38 0
 6-311+G(2d,p)
 ****
 1  2  3  4  5  17  18  19  20  21  22  23  24  25 0
 3-21G
 ****
 27  28  29  34  36  39  40  41  42  43  44  45  46 0
 3-21G
 ****


