%nproc=1
%NoSave
%Mem=1900MB
#P OB98/GEN NMR

erre ene a

0 1
  C     -166.950    -439.781    -891.240
  O     -166.216    -440.598    -892.130
  P     -166.871    -440.879    -893.570
  C     -168.908    -442.307    -894.350
  O     -167.914    -442.080    -893.340
  C     -168.791    -443.719    -894.910
  O     -168.901    -444.683    -893.860
  C     -169.891    -444.092    -895.910
  O     -169.631    -443.505    -897.170
  C     -169.799    -445.598    -895.890
  O     -168.802    -446.064    -896.830
  C     -169.373    -445.911    -894.440
  N     -170.451    -446.501    -893.650
  C     -170.303    -447.853    -893.360
  O     -169.324    -448.487    -893.790
  N     -171.299    -448.478    -892.620
  C     -172.327    -447.791    -892.220
  N     -173.274    -448.461    -891.510
  C     -172.522    -446.370    -892.550
  C     -171.554    -445.772    -893.260
  O     -165.678    -441.571    -894.390
  O     -167.412    -439.670    -894.270
  H     -169.000    -447.021    -896.960
  H     -165.775    -441.422    -895.350
  H     -173.404    -445.845    -892.180
  H     -171.602    -444.734    -893.540
  H     -168.526    -446.605    -894.430
  H     -170.753    -446.062    -896.170
  H     -170.869    -443.756    -895.530
  H     -167.797    -443.834    -895.380
  H     -173.111    -449.438    -891.330
  H     -168.781    -441.587    -895.160
  H     -174.102    -448.018    -891.130
  H     -169.912    -442.148    -893.900
  P     -170.840    -442.741    -897.890
  C     -173.212    -443.461    -898.580
  O     -172.095    -443.728    -897.730
  O     -170.446    -442.885    -899.430
  O     -171.067    -441.312    -897.520
  H     -171.079    -442.387    -900.000
  H     -173.902    -444.298    -898.500
  H     -172.874    -443.372    -899.620
  H     -173.696    -442.547    -898.260
  H     -166.407    -439.674    -890.324
  H     -167.899    -440.233    -891.041
  H     -167.099    -438.818    -891.681

 3  4  5  6  7  8  9  10  11  12  13  21  23  27  28  29  30  32 0
 6-311+G(2d,p)
 ****
 34  35 0
 6-311+G(2d,p)
 ****
 1  2  14  15  16  17  18  19  20  22  24  25  26 0
 3-21G
 ****
 31  33  36  37  38  39  40  41  42  43  44  45  46 0
 3-21G
 ****


