%nproc=1
%NoSave
%Mem=1900MB
#P OB98/GEN NMR

erre ene a

0 1
  C     -672.515     829.355     134.949
  O     -673.203     830.411     135.588
  H     -671.442     829.521     135.062
  H     -672.755     829.346     133.884
  H     -672.772     828.392     135.400
  P     -674.798     830.343     135.698
  C     -674.909     829.362     138.082
  O     -675.159     829.140     136.702
  C     -675.213     828.104     138.901
  O     -676.653     827.951     138.996
  C     -674.651     826.816     138.281
  O     -674.205     825.956     139.329
  C     -675.849     826.207     137.587
  O     -675.738     824.792     137.456
  C     -677.000     826.647     138.492
  N     -681.773     824.996     138.468
  C     -680.776     824.818     139.407
  N     -681.086     824.080     140.490
  N     -679.572     825.326     139.288
  C     -679.411     826.062     138.164
  C     -680.319     826.312     137.161
  C     -681.637     825.727     137.298
  O     -682.559     825.836     136.490
  N     -679.770     827.086     136.176
  C     -678.535     827.308     136.579
  N     -678.262     826.701     137.773
  O     -675.520     830.295     134.389
  O     -675.193     831.646     136.535
  H     -676.477     824.496     136.886
  H     -675.581     832.328     135.958
  H     -682.676     824.576     138.602
  H     -677.799     827.898     136.044
  H     -677.145     825.974     139.343
  H     -675.956     826.634     136.585
  H     -681.999     823.682     140.658
  H     -673.828     827.017     137.596
  H     -680.381     823.961     141.208
  H     -674.835     828.249     139.916
  H     -675.548     830.184     138.421
  H     -673.861     829.653     138.216
  P     -672.634     825.674     139.493
  C     -672.537     825.133     142.003
  O     -672.189     826.065     140.986
  O     -671.769     826.235     138.413
  O     -672.560     824.074     139.512
  H     -671.732     823.788     139.073
  H     -672.194     825.494     142.950
  H     -672.079     824.189     141.793
  H     -673.600     825.015     142.030

 6  7  8  9  10  11  12  13  14  15  26  29  33  34 0
 6-311+G(2d,p)
 ****
 36  38  39  40  41 0
 6-311+G(2d,p)
 ****
 1  2  3  4  5  16  17  18  19  20  21  22  23  24  25 0
 3-21G
 ****
 27  28  30  31  32  35  37  42  43  44  45  46  47 0
 3-21G
 ****
 48  49 0
 3-21G
 ****


