%nproc=1
%NoSave
%Mem=1900MB
#P OB98/GEN NMR

erre ene a

0 1
  C     -744.272      33.149    -187.735
  O     -744.774      32.648    -186.493
  P     -744.571      31.131    -186.035
  C     -743.078      31.145    -183.937
  O     -743.127      30.963    -185.357
  C     -742.537      32.528    -183.549
  O     -743.372      33.578    -184.075
  C     -742.433      32.757    -182.047
  O     -741.297      32.130    -181.496
  C     -742.403      34.302    -182.004
  O     -741.069      34.787    -182.255
  C     -743.359      34.676    -183.144
  N     -746.215      37.819    -180.312
  C     -744.905      37.808    -180.601
  N     -744.202      36.929    -181.349
  C     -745.028      36.001    -181.863
  C     -746.406      35.881    -181.669
  C     -747.006      36.848    -180.835
  N     -748.365      36.845    -180.540
  N     -746.900      34.785    -182.326
  C     -745.861      34.255    -182.948
  N     -744.708      34.966    -182.695
  O     -744.849      30.120    -187.101
  O     -745.590      30.929    -184.808
  H     -740.807      34.476    -183.148
  H     -745.870      29.995    -184.756
  H     -744.330      38.607    -180.147
  H     -745.885      33.390    -183.572
  H     -742.995      35.553    -183.691
  H     -742.695      34.700    -181.021
  H     -743.333      32.418    -181.553
  H     -741.533      32.621    -184.019
  H     -742.437      30.355    -183.511
  H     -748.704      37.542    -179.918
  H     -748.939      36.093    -180.899
  H     -744.103      31.010    -183.540
  P     -741.233      30.525    -181.403
  C     -738.938      30.291    -182.536
  O     -740.310      30.009    -182.630
  O     -742.563      29.847    -181.262
  O     -740.290      30.279    -180.153
  H     -740.544      29.411    -179.716
  H     -738.758      31.333    -182.843
  H     -738.397      29.642    -183.215
  H     -738.566      30.148    -181.521
  H     -744.524      34.185    -187.830
  H     -744.708      32.600    -188.543
  H     -743.208      33.037    -187.761

 3  4  5  6  7  8  9  10  11  12  22  25  29  30  31  32 0
 6-311+G(2d,p)
 ****
 33  36  37 0
 6-311+G(2d,p)
 ****
 1  2  13  14  15  16  17  18  19  20  21  23  24  26 0
 3-21G
 ****
 27  28  34  35  38  39  40  41  42  43  44  45  46  47  48 0
 3-21G
 ****


