%nproc=1
%NoSave
%Mem=1900MB
#P OB98/GEN NMR

erre ene a

0 1
  C      -54.801    -237.093     160.185
  O      -54.838    -236.977     161.590
  H      -55.099    -238.108     159.911
  H      -53.781    -236.919     159.831
  H      -55.482    -236.386     159.707
  P      -54.898    -235.517     162.241
  C      -52.363    -235.051     162.079
  O      -53.666    -234.660     161.663
  C      -51.454    -233.841     162.295
  O      -51.201    -233.193     161.029
  C      -52.082    -232.790     163.213
  O      -51.855    -233.003     164.595
  C      -51.402    -231.509     162.737
  O      -50.164    -231.287     163.433
  C      -51.140    -231.776     161.250
  N      -52.047    -229.616     156.706
  C      -50.844    -230.052     157.233
  N      -49.752    -229.849     156.465
  N      -50.738    -230.612     158.408
  C      -51.900    -230.657     159.100
  C      -53.146    -230.239     158.689
  C      -53.268    -229.684     157.358
  O      -54.312    -229.299     156.837
  N      -54.086    -230.403     159.677
  C      -53.389    -230.836     160.711
  N      -52.077    -231.081     160.383
  O      -54.456    -235.770     163.764
  O      -56.234    -234.840     162.185
  H      -49.910    -230.352     163.305
  H      -54.903    -235.127     164.343
  H      -52.070    -229.218     155.783
  H      -53.792    -231.033     161.697
  H      -50.134    -231.451     160.958
  H      -52.033    -230.635     162.930
  H      -49.765    -229.347     155.593
  H      -53.155    -232.697     163.016
  H      -48.832    -229.981     156.891
  H      -50.483    -234.181     162.681
  H      -51.960    -235.686     161.287
  H      -52.420    -235.654     162.989
  P      -52.834    -232.380     165.693
  C      -51.535    -230.100     165.628
  O      -52.765    -230.790     165.586
  O      -52.080    -232.691     167.067
  O      -54.230    -232.912     165.687
  H      -52.456    -233.485     167.496
  H      -51.713    -229.048     165.541
  H      -50.916    -230.425     164.818
  H      -51.044    -230.303     166.557

 6  7  8  9  10  11  12  13  14  15  26  29  33  34 0
 6-311+G(2d,p)
 ****
 36  38  39  40  41 0
 6-311+G(2d,p)
 ****
 1  2  3  4  5  16  17  18  19  20  21  22  23  24  25 0
 3-21G
 ****
 27  28  30  31  32  35  37  42  43  44  45  46  47 0
 3-21G
 ****
 48  49 0
 3-21G
 ****


