%nproc=1
%NoSave
%Mem=1900MB
#P OB98/GEN NMR

erre ene a

0 1
  C      386.569     838.547     422.473
  O      385.478     837.905     423.146
  P      385.446     837.884     424.741
  C      384.844     835.372     424.744
  O      384.526     836.663     425.238
  C      383.925     834.299     425.367
  O      383.910     834.435     426.814
  C      382.481     834.409     424.876
  O      381.948     833.173     424.389
  C      381.740     835.019     426.047
  O      380.348     834.740     426.059
  C      382.550     834.515     427.246
  N      382.394     835.376     428.416
  C      381.665     834.857     429.482
  O      381.096     833.751     429.441
  N      381.560     835.663     430.585
  C      382.016     836.937     430.694
  O      381.860     837.649     431.692
  C      382.732     837.471     429.519
  C      382.887     836.669     428.445
  O      385.173     839.193     425.404
  O      386.928     837.354     425.125
  H      380.227     833.779     425.842
  H      387.222     837.855     425.918
  H      381.048     835.307     431.394
  H      383.092     838.480     429.552
  H      383.385     837.035     427.558
  H      382.234     833.501     427.544
  H      381.845     836.112     425.993
  H      382.390     835.083     423.994
  H      384.347     833.322     425.100
  H      385.884     835.144     425.000
  H      384.796     835.382     423.646
  P      381.410     832.914     422.894
  C      379.023     832.116     423.520
  O      380.294     831.788     422.949
  O      382.477     832.704     421.856
  O      380.589     834.255     422.561
  H      380.761     834.532     421.645
  H      378.541     831.193     423.802
  H      378.420     832.624     422.770
  H      379.148     832.747     424.401
  H      386.432     838.468     421.415
  H      387.487     838.073     422.750
  H      386.602     839.579     422.752

 3  4  5  6  7  8  9  10  11  12  13  23  28  29  30  31  32 0
 6-311+G(2d,p)
 ****
 33  34 0
 6-311+G(2d,p)
 ****
 1  2  14  15  16  17  18  19  20  21  22  24  25  26  27 0
 3-21G
 ****
 35  36  37  38  39  40  41  42  43  44  45 0
 3-21G
 ****


