%nproc=1
%NoSave
%Mem=1900MB
#P OB98/GEN NMR

erre ene a

0 1
  C        1.943     619.432    -179.287
  O        2.789     619.343    -178.161
  H        1.651     618.424    -179.588
  H        2.470     619.905    -180.122
  H        1.041     619.999    -179.049
  P        3.258     620.690    -177.433
  C        5.374     620.540    -178.897
  O        4.851     620.778    -177.594
  C        6.701     621.276    -179.063
  O        6.502     622.704    -178.955
  C        7.742     620.922    -178.006
  O        8.310     619.657    -178.265
  C        8.694     622.101    -178.148
  O        9.563     621.931    -179.278
  C        7.706     623.266    -178.394
  N        7.417     624.033    -177.179
  C        8.413     624.907    -176.753
  O        9.485     625.048    -177.338
  N        8.150     625.591    -175.595
  C        7.058     625.414    -174.793
  O        6.967     625.876    -173.660
  C        6.009     624.535    -175.332
  C        6.239     623.884    -176.476
  O        2.749     620.887    -176.043
  O        2.734     621.847    -178.414
  H        1.917     622.232    -178.052
  H        8.984     621.828    -180.059
  H        8.887     626.190    -175.245
  H        5.094     624.421    -174.759
  H        5.491     623.205    -176.877
  H        8.112     623.960    -179.143
  H        9.333     622.228    -177.271
  H        7.290     620.951    -177.008
  H        7.085     621.068    -180.069
  H        4.656     620.917    -179.632
  H        5.507     619.463    -179.040
  P        7.907     618.375    -177.392
  C       10.245     617.985    -176.413
  O        9.211     617.453    -177.227
  O        6.689     617.645    -177.856
  O        7.692     618.959    -175.911
  H        6.813     618.685    -175.586
  H       11.060     617.292    -176.373
  H        9.870     618.153    -175.425
  H       10.584     618.911    -176.828

 6  7  8  9  10  11  12  13  14  15  16  27  31  32  33  34  35 0
 6-311+G(2d,p)
 ****
 36  37 0
 6-311+G(2d,p)
 ****
 1  2  3  4  5  17  18  19  20  21  22  23  24  25 0
 3-21G
 ****
 26  28  29  30  38  39  40  41  42  43  44  45 0
 3-21G
 ****


