%nproc=1
%NoSave
%Mem=1900MB
#P OB98/GEN NMR

erre ene a

0 1
  C     -716.847     108.227    -899.180
  O     -716.330     107.096    -898.520
  H     -716.018     108.805    -899.610
  H     -717.392     108.874    -898.480
  H     -717.502     107.928    -900.000
  P     -717.395     106.139    -897.800
  C     -716.349     106.429    -895.440
  O     -717.479     106.681    -896.290
  C     -716.590     107.042    -894.070
  O     -716.403     108.470    -894.120
  C     -717.976     106.810    -893.510
  O     -718.060     105.528    -892.880
  C     -718.067     107.940    -892.470
  O     -717.379     107.539    -891.260
  C     -717.300     109.087    -893.160
  N     -720.419     113.126    -892.590
  C     -719.893     112.265    -891.680
  N     -719.104     111.182    -891.920
  C     -718.882     111.026    -893.230
  C     -719.340     111.827    -894.280
  C     -720.144     112.913    -893.910
  N     -720.692     113.792    -894.830
  N     -718.913     111.348    -895.490
  C     -718.149     110.332    -895.180
  N     -718.117     110.062    -893.840
  O     -717.166     104.669    -897.960
  O     -718.769     106.677    -898.440
  H     -717.472     108.288    -890.630
  H     -718.749     107.655    -898.490
  H     -720.119     112.460    -890.660
  H     -717.567     109.741    -895.910
  H     -716.676     109.638    -892.440
  H     -719.086     108.174    -892.180
  H     -718.760     106.967    -894.260
  H     -715.813     106.628    -893.380
  H     -715.443     106.850    -895.890
  H     -721.389     114.420    -894.500
  H     -720.597     113.557    -895.810
  H     -716.233     105.347    -895.360
  P     -719.453     104.980    -892.330
  C     -718.657     104.990    -889.870
  O     -719.571     105.523    -890.840
  O     -719.636     103.488    -892.480
  O     -720.568     105.813    -893.130
  H     -721.433     105.366    -893.060
  H     -718.846     105.439    -888.917
  H     -717.653     105.203    -890.172
  H     -718.791     103.931    -889.798

 6  7  8  9  10  11  12  13  14  15  25  28  32  33  34  35 0
 6-311+G(2d,p)
 ****
 36  39  40 0
 6-311+G(2d,p)
 ****
 1  2  3  4  5  16  17  18  19  20  21  22  23  24 0
 3-21G
 ****
 26  27  29  30  31  37  38  41  42  43  44  45  46  47 0
 3-21G
 ****
 48 0
 3-21G
 ****


