%nproc=1
%NoSave
%Mem=1900MB
#P OB98/GEN NMR

erre ene a

0 1
  C       98.932     135.245    -282.186
  O       99.181     134.962    -280.806
  P       98.112     135.501    -279.737
  C       96.242     133.793    -280.337
  O       97.130     134.296    -279.347
  C       94.961     133.272    -279.681
  O       93.932     133.029    -280.661
  C       95.153     131.943    -278.966
  O       95.783     132.139    -277.715
  C       93.721     131.428    -278.862
  O       93.085     131.871    -277.651
  C       93.032     132.055    -280.101
  N       92.646     131.062    -281.086
  C       91.273     130.923    -281.307
  O       90.467     131.599    -280.668
  N       90.846     129.998    -282.229
  C       91.714     129.263    -282.856
  N       91.230     128.362    -283.751
  C       93.172     129.359    -282.629
  C       93.563     130.269    -281.741
  O       97.182     136.473    -280.606
  O       98.723     136.219    -278.577
  H       92.975     132.840    -277.749
  H       96.861     137.212    -280.059
  H       93.856     128.722    -283.169
  H       94.614     130.413    -281.511
  H       92.130     132.600    -279.796
  H       93.688     130.336    -278.856
  H       95.745     131.267    -279.592
  H       94.599     134.031    -278.972
  H       90.226     128.319    -283.877
  H       96.723     132.992    -280.904
  H       91.814     127.735    -284.288
  H       96.017     134.593    -281.054
  P       97.094     131.279    -277.400
  C       98.768     131.819    -279.271
  O       98.312     132.152    -277.972
  O       96.994     130.103    -278.485
  O       97.252     130.746    -276.014
  H       97.698     129.450    -278.335
  H       99.443     132.607    -279.615
  H       97.928     131.745    -279.967
  H       99.316     130.876    -279.240
  H       99.718     134.831    -282.782
  H       98.894     136.304    -282.332
  H       97.998     134.812    -282.476

 3  4  5  6  7  8  9  10  11  12  13  21  23  27  28  29  30  32 0
 6-311+G(2d,p)
 ****
 34  35 0
 6-311+G(2d,p)
 ****
 1  2  14  15  16  17  18  19  20  22  24  25  26 0
 3-21G
 ****
 31  33  36  37  38  39  40  41  42  43  44  45  46 0
 3-21G
 ****


