%nproc=1
%NoSave
%Mem=1900MB
#P OB98/GEN NMR

erre ene a

0 1
  C     -859.009    -665.919      79.775
  O     -858.921    -665.989      78.357
  H     -858.371    -666.688      80.206
  H     -860.045    -666.106      80.081
  H     -858.687    -664.942      80.148
  P     -859.526    -664.793      77.477
  C     -857.500    -664.426      75.918
  O     -858.834    -664.895      76.033
  C     -856.846    -664.941      74.639
  O     -856.505    -666.354      74.804
  C     -857.751    -664.833      73.395
  O     -856.895    -664.641      72.259
  C     -858.363    -666.222      73.344
  O     -858.929    -666.499      72.072
  C     -857.170    -667.075      73.762
  N     -857.573    -668.425      74.201
  C     -857.147    -669.486      73.413
  O     -856.482    -669.340      72.378
  N     -857.529    -670.740      73.828
  C     -858.336    -671.006      74.887
  O     -858.678    -672.137      75.198
  C     -858.805    -669.834      75.664
  C     -858.396    -668.617      75.298
  O     -859.473    -663.442      78.112
  O     -861.035    -665.258      77.189
  H     -859.613    -665.844      71.864
  H     -861.606    -664.471      77.095
  H     -857.226    -671.516      73.268
  H     -859.448    -670.017      76.501
  H     -858.725    -667.732      75.841
  H     -856.470    -667.191      72.923
  H     -859.177    -666.309      74.087
  H     -858.486    -664.033      73.463
  H     -855.897    -664.407      74.476
  H     -856.942    -664.781      76.799
  H     -857.493    -663.332      75.935
  P     -857.237    -663.560      71.116
  C     -855.614    -661.608      71.527
  O     -855.896    -662.746      70.752
  O     -858.417    -662.682      71.421
  O     -857.528    -664.442      69.815
  H     -858.134    -663.958      69.200
  H     -854.703    -661.161      71.186
  H     -855.510    -661.892      72.553
  H     -856.414    -660.904      71.431

 6  7  8  9  10  11  12  13  14  15  16  26  31  32  33  34  35 0
 6-311+G(2d,p)
 ****
 36  37 0
 6-311+G(2d,p)
 ****
 1  2  3  4  5  17  18  19  20  21  22  23  24  25 0
 3-21G
 ****
 27  28  29  30  38  39  40  41  42  43  44  45 0
 3-21G
 ****


