%nproc=1
%NoSave
%Mem=1900MB
#P OB98/GEN NMR

erre ene a

0 1
  C     -147.257     131.216       6.956
  O     -145.894     131.586       6.972
  H     -147.328     130.128       7.022
  H     -147.716     131.536       6.016
  H     -147.796     131.654       7.800
  P     -145.509     133.129       7.168
  C     -143.703     133.383       5.340
  O     -143.970     133.259       6.729
  C     -142.313     132.831       5.019
  O     -141.320     133.762       5.549
  C     -142.041     131.449       5.648
  O     -141.198     130.703       4.760
  C     -141.273     131.832       6.895
  O     -140.531     130.752       7.409
  C     -140.429     132.994       6.378
  N     -139.869     133.779       7.474
  C     -138.576     133.465       7.877
  O     -137.903     132.569       7.367
  N     -138.092     134.169       8.944
  C     -138.799     135.054       9.702
  O     -138.342     135.598      10.697
  C     -140.181     135.310       9.263
  C     -140.645     134.675       8.182
  O     -145.828     133.719       8.500
  O     -146.262     133.880       5.970
  H     -139.958     130.381       6.715
  H     -146.371     134.827       6.179
  H     -137.151     133.958       9.241
  H     -140.778     135.995       9.852
  H     -141.663     134.824       7.842
  H     -139.612     132.631       5.741
  H     -141.964     132.164       7.678
  H     -142.954     130.885       5.858
  H     -142.179     132.805       3.932
  H     -143.754     134.446       5.074
  H     -144.466     132.837       4.773
  P     -141.776     129.528       3.832
  C     -141.537     127.457       5.331
  O     -141.053     128.132       4.175
  O     -141.800     129.857       2.372
  O     -143.273     129.307       4.362
  H     -143.878     129.246       3.599
  H     -140.992     126.547       5.467
  H     -142.576     127.235       5.205
  H     -141.407     128.082       6.190

 6  7  8  9  10  11  12  13  14  15  16  26  31  32  33  34  35 0
 6-311+G(2d,p)
 ****
 36  37 0
 6-311+G(2d,p)
 ****
 1  2  3  4  5  17  18  19  20  21  22  23  24  25 0
 3-21G
 ****
 27  28  29  30  38  39  40  41  42  43  44  45 0
 3-21G
 ****


