%nproc=1
%NoSave
%Mem=1900MB
#P OB98/GEN NMR

erre ene a

0 1
  C       35.188     101.090    -171.609
  O       34.858      99.719    -171.688
  H       35.149     101.402    -170.561
  H       34.464     101.682    -172.176
  H       36.196     101.275    -171.991
  P       35.098      98.940    -173.070
  C       32.694      99.428    -173.870
  O       34.081      99.576    -174.138
  C       32.097      98.298    -174.714
  O       32.460      98.521    -176.113
  C       32.605      96.890    -174.329
  O       31.536      95.968    -174.585
  C       33.735      96.705    -175.325
  O       34.160      95.370    -175.394
  C       33.086      97.305    -176.575
  N       34.031      97.568    -177.655
  C       33.803      96.933    -178.873
  O       32.851      96.188    -179.091
  N       34.735      97.176    -179.851
  C       35.840      97.966    -179.731
  O       36.629      98.167    -180.650
  C       36.041      98.588    -178.411
  C       35.142      98.365    -177.447
  O       35.078      97.451    -172.987
  O       36.522      99.485    -173.566
  H       37.219      98.847    -173.320
  H       34.749      95.236    -176.166
  H       34.585      96.722    -180.741
  H       36.920      99.204    -178.275
  H       35.256      98.804    -176.460
  H       32.286      96.654    -176.947
  H       34.606      97.297    -175.021
  H       32.909      96.819    -173.281
  H       31.003      98.353    -174.659
  H       32.196     100.374    -174.110
  H       32.553      99.211    -172.803
  P       30.812      95.115    -173.431
  C       31.777      92.756    -173.832
  O       31.766      93.900    -172.990
  O       29.427      94.679    -173.789
  O       30.786      96.071    -172.145
  H       29.959      95.919    -171.648
  H       32.447      92.024    -173.431
  H       32.101      93.038    -174.812
  H       30.791      92.344    -173.887

 6  7  8  9  10  11  12  13  14  15  16  27  31  32  33  34  35 0
 6-311+G(2d,p)
 ****
 36  37 0
 6-311+G(2d,p)
 ****
 1  2  3  4  5  17  18  19  20  21  22  23  24  25 0
 3-21G
 ****
 26  28  29  30  38  39  40  41  42  43  44  45 0
 3-21G
 ****


