%nproc=1
%NoSave
%Mem=1900MB
#P OB98/GEN NMR

erre ene a

0 1
  C     -891.450    -711.212     329.270
  O     -892.870    -711.193     329.287
  H     -891.100    -710.695     328.373
  H     -891.070    -712.238     329.242
  H     -891.060    -710.696     330.156
  P     -893.630    -712.035     330.423
  C     -895.090    -710.034     331.170
  O     -894.060    -710.951     331.527
  C     -896.370    -710.347     331.959
  O     -896.060    -710.446     333.360
  C     -897.420    -709.243     331.842
  O     -898.080    -709.305     330.593
  C     -898.290    -709.568     333.049
  O     -899.200    -710.648     332.787
  C     -897.230    -709.971     334.098
  N     -896.860    -708.880     335.004
  C     -897.880    -708.374     335.794
  O     -899.020    -708.845     335.719
  N     -897.610    -707.330     336.650
  C     -896.400    -706.840     336.701
  N     -896.190    -705.811     337.557
  C     -895.300    -707.357     335.875
  C     -895.580    -708.361     335.052
  O     -892.910    -713.234     330.972
  O     -895.020    -712.419     329.726
  H     -898.650    -711.383     332.499
  H     -894.940    -713.280     329.260
  H     -894.300    -706.937     335.953
  H     -894.820    -708.804     334.417
  H     -897.580    -710.823     334.704
  H     -898.880    -708.695     333.357
  H     -896.970    -708.259     331.994
  H     -896.760    -711.308     331.615
  H     -896.980    -705.479     338.077
  H     -895.280    -710.139     330.093
  H     -895.270    -705.418     337.755
  H     -894.790    -709.002     331.363
  P     -898.700    -707.990     329.932
  C     -896.440    -707.069     329.059
  O     -897.510    -706.888     329.973
  O     -900.000    -707.534     330.514
  O     -898.770    -708.339     328.365
  H     -899.510    -708.964     328.184
  H     -895.726    -706.282     329.185
  H     -896.819    -707.050     328.058
  H     -895.969    -708.012     329.244

 6  7  8  9  10  11  12  13  14  15  16  26  30  31  32  33  35 0
 6-311+G(2d,p)
 ****
 37  38 0
 6-311+G(2d,p)
 ****
 1  2  3  4  5  17  18  19  20  21  22  23  24  25 0
 3-21G
 ****
 27  28  29  34  36  39  40  41  42  43  44  45  46 0
 3-21G
 ****


