%nproc=1
%NoSave
%Mem=1900MB
#P OB98/GEN NMR

erre ene a

0 1
  C      149.008    -134.692     325.350
  O      148.681    -133.813     326.414
  H      150.075    -134.593     325.128
  H      148.442    -134.438     324.449
  H      148.802    -135.727     325.638
  P      147.139    -133.659     326.821
  C      146.724    -131.488     325.475
  O      146.448    -132.878     325.607
  C      145.427    -130.710     325.266
  O      144.707    -131.235     324.135
  C      144.474    -130.807     326.451
  O      144.903    -129.980     327.517
  C      143.168    -130.407     325.798
  O      143.063    -128.981     325.663
  C      143.294    -131.083     324.411
  N      142.602    -132.367     324.347
  C      141.245    -132.323     324.014
  O      140.695    -131.243     323.794
  N      140.544    -133.501     323.967
  C      141.145    -134.627     324.206
  N      140.389    -135.757     324.144
  C      142.577    -134.724     324.541
  C      143.239    -133.566     324.596
  O      146.852    -133.075     328.172
  O      146.559    -135.146     326.675
  H      142.267    -128.825     325.115
  H      146.653    -135.633     327.515
  H      143.038    -135.680     324.732
  H      144.298    -133.548     324.834
  H      142.885    -130.433     323.629
  H      142.310    -130.748     326.373
  H      144.385    -131.849     326.778
  H      145.682    -129.663     325.049
  H      139.410    -135.643     323.920
  H      147.380    -131.369     324.605
  H      140.768    -136.692     324.217
  H      147.251    -131.112     326.361
  P      144.268    -130.137     328.980
  C      142.254    -128.551     328.643
  O      142.688    -129.908     328.784
  O      144.907    -129.313     330.046
  O      144.362    -131.716     329.249
  H      145.294    -131.993     329.447
  H      141.191    -128.527     328.520
  H      142.722    -128.114     327.786
  H      142.524    -127.997     329.518

 6  7  8  9  10  11  12  13  14  15  16  26  30  31  32  33  35 0
 6-311+G(2d,p)
 ****
 37  38 0
 6-311+G(2d,p)
 ****
 1  2  3  4  5  17  18  19  20  21  22  23  24  25 0
 3-21G
 ****
 27  28  29  34  36  39  40  41  42  43  44  45  46 0
 3-21G
 ****


