%nproc=1
%NoSave
%Mem=1900MB
#P OB98/GEN NMR

erre ene a

0 1
  C      256.603      22.957     173.290
  O      255.400      22.983     172.551
  H      257.306      22.244     172.852
  H      257.049      23.955     173.268
  H      256.398      22.686     174.331
  P      254.643      21.579     172.374
  C      253.062      22.643     170.618
  O      253.980      21.599     170.914
  C      252.744      22.658     169.128
  O      253.907      23.059     168.374
  C      252.334      21.308     168.549
  O      250.982      20.992     168.840
  C      252.545      21.564     167.064
  O      251.413      22.280     166.531
  C      253.788      22.464     167.053
  N      256.955      20.901     163.326
  C      255.795      21.595     163.290
  N      255.003      21.966     164.317
  C      255.520      21.559     165.489
  C      256.691      20.843     165.682
  C      257.423      20.504     164.531
  N      258.596      19.781     164.576
  N      256.911      20.619     167.022
  C      255.890      21.186     167.633
  N      255.019      21.762     166.748
  O      253.381      21.709     173.355
  O      255.458      20.369     172.692
  H      251.329      23.099     167.057
  H      253.198      20.837     173.752
  H      255.457      21.899     162.303
  H      255.745      21.209     168.706
  H      253.681      23.291     166.342
  H      252.654      20.646     166.480
  H      253.013      20.512     168.879
  H      251.959      23.406     168.958
  H      253.501      23.605     170.900
  H      259.171      19.739     163.751
  H      258.944      19.495     165.485
  H      252.149      22.485     171.201
  P      250.667      19.516     169.389
  C      248.181      20.001     168.825
  O      249.273      19.093     168.718
  O      250.274      19.773     170.921
  O      251.786      18.539     169.261
  H      250.447      18.971     171.448
  H      247.324      19.588     168.335
  H      248.443      20.930     168.363
  H      247.955      20.167     169.858

 6  7  8  9  10  11  12  13  14  15  25  28  32  33  34  35 0
 6-311+G(2d,p)
 ****
 36  39  40 0
 6-311+G(2d,p)
 ****
 1  2  3  4  5  16  17  18  19  20  21  22  23  24 0
 3-21G
 ****
 26  27  29  30  31  37  38  41  42  43  44  45  46  47  48 0
 3-21G
 ****


