%nproc=1
%NoSave
%Mem=1900MB
#P OB98/GEN NMR

erre ene a

0 1
  C     -164.121     -70.639      35.745
  O     -164.240     -69.993      37.019
  P     -163.989     -70.872      38.334
  C     -161.568     -69.946      38.557
  O     -162.409     -71.089      38.494
  C     -160.433     -70.177      39.557
  O     -160.931     -70.338      40.903
  C     -159.607     -71.423      39.268
  O     -158.613     -71.180      38.281
  C     -158.949     -71.658      40.617
  O     -157.817     -70.777      40.770
  C     -160.065     -71.271      41.595
  N     -161.310     -74.086      45.609
  C     -160.491     -72.978      45.519
  N     -159.926     -72.551      46.670
  N     -160.247     -72.344      44.402
  C     -160.893     -72.871      43.335
  C     -161.727     -73.964      43.297
  C     -161.977     -74.665      44.537
  O     -162.681     -75.661      44.675
  N     -162.187     -74.197      42.029
  C     -161.650     -73.236      41.303
  N     -160.842     -72.414      42.047
  O     -164.502     -72.325      37.895
  O     -164.703     -70.379      39.548
  H     -157.264     -70.894      39.974
  H     -164.808     -72.819      38.677
  H     -161.459     -74.539      46.494
  H     -161.815     -73.094      40.243
  H     -159.683     -70.767      42.490
  H     -158.569     -72.679      40.725
  H     -160.110     -72.961      47.572
  H     -160.249     -72.274      39.007
  H     -159.351     -71.720      46.629
  H     -159.775     -69.298      39.534
  H     -162.146     -69.065      38.847
  H     -161.184     -69.733      37.556
  P     -158.506     -72.211      37.057
  C     -159.217     -70.401      35.337
  O     -159.492     -71.656      35.925
  O     -159.251     -73.510      37.620
  O     -157.114     -72.517      36.622
  H     -158.857     -74.314      37.234
  H     -159.886     -70.260      34.486
  H     -158.184     -70.355      34.984
  H     -159.396     -69.601      36.062
  H     -164.315     -69.931      34.967
  H     -164.828     -71.439      35.683
  H     -163.131     -71.029      35.634

 3  4  5  6  7  8  9  10  11  12  23  26  30  31 0
 6-311+G(2d,p)
 ****
 33  35  36  37  38 0
 6-311+G(2d,p)
 ****
 1  2  13  14  15  16  17  18  19  20  21  22  24  25 0
 3-21G
 ****
 27  28  29  32  34  39  40  41  42  43  44  45  46  47  48  49 0
 3-21G
 ****


