%nproc=1
%NoSave
%Mem=1900MB
#P OB98/GEN NMR

erre ene a

0 1
  C      200.156     106.460     132.575
  O      200.296     107.418     133.606
  H      200.432     106.928     131.626
  H      199.118     106.126     132.509
  H      200.813     105.604     132.748
  P      200.100     106.949     135.125
  C      202.301     107.902     136.074
  O      200.884     108.003     136.043
  C      202.893     109.124     136.774
  O      202.903     110.257     135.876
  C      202.105     109.573     137.997
  O      202.354     108.729     139.106
  C      202.610     110.998     138.155
  O      203.881     111.023     138.824
  C      202.750     111.447     136.684
  N      201.621     112.254     136.226
  C      201.611     113.588     136.624
  O      202.471     114.083     137.350
  N      200.550     114.334     136.181
  C      199.471     113.860     135.492
  O      198.503     114.555     135.196
  C      199.524     112.440     135.120
  C      200.579     111.714     135.497
  O      200.407     105.516     135.405
  O      198.562     107.287     135.428
  H      203.790     110.446     139.608
  H      198.043     106.461     135.429
  H      200.517     115.298     136.469
  H      198.693     112.032     134.562
  H      200.633     110.664     135.238
  H      203.668     112.035     136.552
  H      201.929     111.617     138.740
  H      201.034     109.602     137.766
  H      203.934     108.897     137.042
  H      202.673     107.856     135.045
  H      202.583     106.981     136.596
  P      201.213     107.735     139.624
  C      202.637     106.011     140.892
  O      201.715     107.092     141.004
  O      200.710     106.756     138.615
  O      200.038     108.717     140.092
  H      199.235     108.534     139.568
  H      202.900     105.664     141.869
  H      203.517     106.344     140.383
  H      202.186     105.213     140.340

 6  7  8  9  10  11  12  13  14  15  16  26  31  32  33  34  35 0
 6-311+G(2d,p)
 ****
 36  37 0
 6-311+G(2d,p)
 ****
 1  2  3  4  5  17  18  19  20  21  22  23  24  25 0
 3-21G
 ****
 27  28  29  30  38  39  40  41  42  43  44  45 0
 3-21G
 ****


