%nproc=1
%NoSave
%Mem=1900MB
#P OB98/GEN NMR

erre ene a

0 1
  C       70.480    -201.004      83.970
  O       69.579    -202.074      83.703
  P       68.208    -202.111      84.537
  C       67.652    -204.582      85.167
  O       67.468    -203.505      84.248
  C       66.956    -205.843      84.640
  O       65.550    -205.615      84.425
  C       67.495    -206.315      83.306
  O       68.729    -206.995      83.472
  C       66.365    -207.209      82.800
  O       66.527    -208.570      83.220
  C       65.108    -206.577      83.449
  N       64.218    -205.964      82.467
  C       63.442    -206.856      81.712
  O       63.552    -208.066      81.869
  N       62.581    -206.332      80.773
  C       62.521    -205.053      80.593
  N       61.646    -204.595      79.642
  C       63.342    -204.079      81.349
  C       64.159    -204.610      82.255
  O       67.285    -201.038      83.777
  O       68.368    -201.766      85.986
  H       66.735    -208.530      84.183
  H       66.693    -200.595      84.407
  H       63.259    -203.021      81.162
  H       64.803    -203.965      82.862
  H       64.538    -207.344      83.991
  H       66.327    -207.217      81.706
  H       67.628    -205.453      82.625
  H       67.067    -206.638      85.399
  H       61.103    -205.284      79.140
  H       67.249    -204.315      86.149
  H       61.531    -203.611      79.422
  H       68.723    -204.754      85.303
  P       69.832    -206.850      82.324
  C       70.630    -209.214      81.724
  O       70.837    -208.077      82.548
  O       70.702    -205.606      82.844
  O       69.343    -206.634      80.927
  H       71.360    -205.351      82.175
  H       71.499    -209.884      81.837
  H       70.548    -208.922      80.675
  H       69.737    -209.756      82.051
  H       71.345    -201.103      83.348
  H       70.774    -201.034      84.998
  H       69.997    -200.072      83.764

 3  4  5  6  7  8  9  10  11  12  13  21  23  27  28  29  30  32 0
 6-311+G(2d,p)
 ****
 34  35 0
 6-311+G(2d,p)
 ****
 1  2  14  15  16  17  18  19  20  22  24  25  26 0
 3-21G
 ****
 31  33  36  37  38  39  40  41  42  43  44  45  46 0
 3-21G
 ****


