%nproc=1
%NoSave
%Mem=1900MB
#P OB98/GEN NMR

erre ene a

0 1
  C       86.417    -116.940      43.530
  O       86.222    -115.744      42.800
  H       85.605    -117.633      43.292
  H       86.396    -116.729      44.603
  H       87.370    -117.402      43.258
  P       87.391    -114.653      42.870
  C       86.119    -113.243      44.683
  O       87.297    -113.946      44.311
  C       86.091    -113.037      46.196
  O       86.010    -114.296      46.894
  C       87.349    -112.395      46.753
  O       87.465    -111.031      46.416
  C       87.154    -112.650      48.240
  O       86.234    -111.709      48.810
  C       86.543    -114.074      48.227
  N       87.507    -115.098      48.600
  C       87.814    -115.176      49.966
  O       87.273    -114.416      50.768
  N       88.747    -116.094      50.377
  C       89.306    -116.881      49.513
  N       90.229    -117.762      49.984
  C       88.993    -116.850      48.071
  C       88.098    -115.940      47.689
  O       86.866    -113.512      41.881
  O       88.758    -115.165      42.554
  H       85.431    -111.739      48.254
  H       85.970    -113.200      42.088
  H       89.477    -117.532      47.387
  H       87.813    -115.850      46.649
  H       85.695    -114.135      48.920
  H       88.088    -112.561      48.799
  H       88.237    -112.957      46.429
  H       85.198    -112.450      46.443
  H       90.434    -117.740      50.976
  H       85.223    -113.777      44.349
  H       90.751    -118.398      49.401
  H       86.136    -112.275      44.171
  P       88.867    -110.269      46.564
  C       87.927    -109.436      48.812
  O       89.056    -109.978      48.133
  O       89.037    -109.075      45.687
  O       89.944    -111.426      46.304
  H       89.896    -112.173      46.926
  H       88.169    -109.285      49.843
  H       87.104    -110.116      48.735
  H       87.659    -108.500      48.368

 6  7  8  9  10  11  12  13  14  15  16  26  30  31  32  33  35 0
 6-311+G(2d,p)
 ****
 37  38 0
 6-311+G(2d,p)
 ****
 1  2  3  4  5  17  18  19  20  21  22  23  24  25 0
 3-21G
 ****
 27  28  29  34  36  39  40  41  42  43  44  45  46 0
 3-21G
 ****


