%nproc=1
%NoSave
%Mem=1900MB
#P OB98/GEN NMR

erre ene a

0 1
  C     -109.826    -287.359    -406.732
  O     -110.570    -286.789    -405.673
  P     -109.872    -286.736    -404.226
  C     -108.132    -288.243    -403.013
  O     -109.068    -288.117    -404.081
  C     -108.254    -289.613    -402.358
  O     -108.000    -290.648    -403.325
  C     -107.261    -289.852    -401.234
  O     -107.675    -289.190    -400.055
  C     -107.283    -291.373    -401.130
  O     -108.345    -291.816    -400.268
  C     -107.538    -291.808    -402.592
  N     -106.368    -292.399    -403.212
  C     -105.939    -293.617    -402.668
  O     -106.540    -294.106    -401.708
  N     -104.825    -294.222    -403.195
  C     -104.197    -293.657    -404.177
  N     -103.101    -294.301    -404.669
  C     -104.599    -292.366    -404.765
  C     -105.678    -291.792    -404.237
  O     -111.102    -286.911    -403.220
  O     -109.088    -285.495    -403.954
  H     -108.279    -292.793    -400.250
  H     -110.908    -286.502    -402.358
  H     -104.036    -291.935    -405.585
  H     -106.045    -290.841    -404.608
  H     -108.355    -292.540    -402.631
  H     -106.348    -291.765    -400.713
  H     -106.259    -289.513    -401.525
  H     -109.284    -289.728    -401.995
  H     -102.844    -295.184    -404.237
  H     -108.331    -287.470    -402.266
  H     -102.553    -293.957    -405.442
  H     -107.124    -288.087    -403.409
  P     -106.541    -288.717    -399.028
  C     -104.866    -289.939    -397.518
  O     -105.955    -290.074    -398.408
  O     -107.409    -288.139    -397.808
  O     -105.543    -287.725    -399.523
  H     -106.825    -287.726    -397.147
  H     -104.669    -290.905    -397.049
  H     -105.101    -289.210    -396.732
  H     -103.973    -289.621    -398.064
  H     -110.406    -287.330    -407.631
  H     -109.587    -288.375    -406.494
  H     -108.922    -286.804    -406.872

 3  4  5  6  7  8  9  10  11  12  13  21  23  27  28  29  30  32 0
 6-311+G(2d,p)
 ****
 34  35 0
 6-311+G(2d,p)
 ****
 1  2  14  15  16  17  18  19  20  22  24  25  26 0
 3-21G
 ****
 31  33  36  37  38  39  40  41  42  43  44  45  46 0
 3-21G
 ****


