%nproc=1
%NoSave
%Mem=1900MB
#P OB98/GEN NMR

erre ene a

0 1
  C      -72.559    -162.362     733.016
  O      -73.323    -161.281     732.517
  H      -73.176    -163.264     733.008
  H      -72.240    -162.171     734.047
  H      -71.679    -162.529     732.389
  P      -72.689    -159.810     732.576
  C      -74.856    -158.901     731.489
  O      -73.934    -158.803     732.572
  C      -76.288    -158.838     732.014
  O      -76.662    -160.096     732.616
  C      -76.482    -157.783     733.099
  O      -76.532    -156.487     732.535
  C      -77.767    -158.275     733.743
  O      -78.914    -157.880     732.970
  C      -77.573    -159.810     733.706
  N      -77.074    -160.344     734.960
  C      -77.940    -161.205     735.648
  O      -79.046    -161.474     735.186
  N      -77.526    -161.719     736.853
  C      -76.363    -161.415     737.327
  N      -76.022    -161.956     738.530
  C      -75.411    -160.524     736.634
  C      -75.835    -160.022     735.472
  O      -71.630    -159.487     731.565
  O      -72.139    -159.700     734.080
  H      -78.940    -156.903     733.007
  H      -71.212    -160.019     734.129
  H      -74.450    -160.307     737.066
  H      -75.197    -159.366     734.891
  H      -78.517    -160.309     733.466
  H      -77.892    -157.871     734.748
  H      -75.679    -157.859     733.839
  H      -76.958    -158.660     731.162
  H      -76.709    -162.558     738.982
  H      -74.679    -159.865     731.001
  H      -75.101    -161.866     738.954
  H      -74.685    -158.104     730.758
  P      -76.061    -155.207     733.388
  C      -77.946    -154.017     732.092
  O      -77.308    -154.190     733.354
  O      -74.749    -154.629     732.984
  O      -76.083    -155.755     734.897
  H      -75.321    -156.354     735.073
  H      -78.754    -153.323     732.193
  H      -78.324    -154.958     731.752
  H      -77.239    -153.639     731.383

 6  7  8  9  10  11  12  13  14  15  16  26  30  31  32  33  35 0
 6-311+G(2d,p)
 ****
 37  38 0
 6-311+G(2d,p)
 ****
 1  2  3  4  5  17  18  19  20  21  22  23  24  25 0
 3-21G
 ****
 27  28  29  34  36  39  40  41  42  43  44  45  46 0
 3-21G
 ****


