%nproc=1
%NoSave
%Mem=1900MB
#P OB98/GEN NMR

erre ene a

0 1
  C      -73.682     336.758     513.580
  O      -72.989     337.151     514.761
  P      -73.665     337.364     516.193
  C      -73.590     334.900     517.075
  O      -73.116     336.241     517.188
  C      -72.620     333.875     517.729
  O      -71.497     333.656     516.854
  C      -72.073     334.423     519.037
  O      -72.831     334.310     520.229
  C      -70.653     333.842     519.145
  O      -70.629     332.619     519.898
  C      -70.290     333.572     517.681
  N      -65.388     334.238     516.397
  C      -65.990     333.136     516.982
  N      -65.182     332.102     517.292
  N      -67.282     333.084     517.231
  C      -67.944     334.220     516.942
  C      -67.453     335.378     516.394
  C      -66.046     335.422     516.057
  O      -65.448     336.391     515.552
  N      -68.431     336.337     516.252
  C      -69.508     335.761     516.754
  N      -69.277     334.479     517.177
  O      -75.151     337.603     516.178
  O      -72.961     338.725     516.729
  H      -71.351     332.059     519.589
  H      -73.637     339.189     517.273
  H      -64.383     334.243     516.208
  H      -70.495     336.231     516.811
  H      -69.899     332.531     517.551
  H      -69.987     334.541     519.632
  H      -64.180     332.152     517.229
  H      -71.940     335.508     518.901
  H      -65.598     331.379     517.914
  H      -73.123     332.885     517.831
  H      -73.695     334.694     516.010
  H      -74.585     334.802     517.514
  P      -72.694     335.239     521.545
  C      -74.410     333.720     522.698
  O      -73.157     334.378     522.823
  O      -73.884     336.302     521.376
  O      -71.358     335.943     521.694
  H      -73.738     337.078     521.978
  H      -74.752     333.424     523.697
  H      -74.302     332.815     522.095
  H      -75.164     334.399     522.243
  H      -72.990     336.690     512.766
  H      -74.434     337.484     513.350
  H      -74.142     335.805     513.737

 3  4  5  6  7  8  9  10  11  12  23  26  30  31 0
 6-311+G(2d,p)
 ****
 33  35  36  37  38 0
 6-311+G(2d,p)
 ****
 1  2  13  14  15  16  17  18  19  20  21  22  24  25 0
 3-21G
 ****
 27  28  29  32  34  39  40  41  42  43  44  45  46  47  48  49 0
 3-21G
 ****


