%nproc=1
%NoSave
%Mem=1900MB
#P OB98/GEN NMR

erre ene a

0 1
  C       -5.641     -22.111     -25.269
  O       -5.256     -22.265     -26.623
  P       -5.011     -20.989     -27.566
  C       -3.935     -20.678     -29.884
  O       -4.059     -21.525     -28.745
  C       -2.649     -21.005     -30.645
  O       -1.523     -20.508     -29.874
  C       -2.367     -22.492     -30.865
  O       -3.014     -23.056     -31.998
  C       -0.860     -22.458     -31.109
  O       -0.601     -22.033     -32.459
  C       -0.394     -21.388     -30.117
  N        3.709     -22.683     -27.343
  C        3.585     -22.101     -28.560
  N        2.458     -21.810     -29.239
  C        1.372     -22.138     -28.516
  C        1.335     -22.726     -27.258
  C        2.581     -23.004     -26.666
  N        2.705     -23.572     -25.411
  N        0.033     -22.924     -26.851
  C       -0.704     -22.451     -27.832
  N        0.055     -21.955     -28.859
  O       -4.529     -19.774     -26.851
  O       -6.409     -20.768     -28.306
  H        0.349     -21.795     -32.506
  H       -6.442     -19.869     -28.692
  H        4.516     -21.849     -29.058
  H       -1.780     -22.447     -27.850
  H        0.418     -20.772     -30.518
  H       -0.383     -23.437     -30.985
  H       -2.570     -23.076     -29.957
  H       -2.667     -20.466     -31.603
  H       -3.890     -19.638     -29.536
  H        3.627     -23.614     -25.016
  H        1.871     -23.657     -24.842
  H       -4.814     -20.789     -30.522
  P       -3.095     -24.664     -32.068
  C       -5.083     -26.343     -32.409
  O       -4.655     -25.007     -32.221
  O       -2.388     -25.370     -30.965
  O       -2.513     -24.987     -33.522
  H       -3.060     -24.678     -34.271
  H       -6.172     -26.374     -32.323
  H       -4.654     -27.000     -31.652
  H       -4.799     -26.682     -33.406
  H       -5.752     -23.075     -24.818
  H       -6.571     -21.585     -25.220
  H       -4.890     -21.557     -24.746

 3  4  5  6  7  8  9  10  11  12  22  25  29  30  31  32 0
 6-311+G(2d,p)
 ****
 33  36  37 0
 6-311+G(2d,p)
 ****
 1  2  13  14  15  16  17  18  19  20  21  23  24  26 0
 3-21G
 ****
 27  28  34  35  38  39  40  41  42  43  44  45  46  47  48 0
 3-21G
 ****


