%nproc=1
%NoSave
%Mem=1900MB
#P OB98/GEN NMR

erre ene a

0 1
  C      138.989      50.623    -365.597
  O      140.382      50.880    -365.528
  P      140.967      51.448    -364.150
  C      141.363      49.548    -362.403
  O      140.455      50.477    -362.979
  C      141.619      49.913    -360.940
  O      142.439      51.103    -360.856
  C      140.347      50.235    -360.164
  O      139.665      49.056    -359.774
  C      140.898      51.032    -358.986
  O      141.377      50.158    -357.954
  C      142.072      51.794    -359.642
  N      141.756      53.194    -359.897
  C      142.568      54.130    -359.256
  O      143.486      53.809    -358.500
  N      142.265      55.441    -359.484
  C      141.217      55.910    -360.224
  O      140.958      57.098    -360.343
  C      140.375      54.878    -360.854
  C      140.675      53.594    -360.661
  O      140.146      52.800    -363.910
  O      142.442      51.688    -364.149
  H      140.591      49.828    -357.478
  H      140.721      53.469    -363.488
  H      142.852      56.136    -359.048
  H      139.532      55.211    -361.449
  H      140.058      52.817    -361.106
  H      142.956      51.753    -358.997
  H      140.145      51.678    -358.536
  H      139.696      50.886    -360.764
  H      142.162      49.086    -360.465
  H      142.307      49.570    -362.962
  H      140.944      48.539    -362.482
  P      138.064      49.149    -359.659
  C      137.270      47.728    -361.706
  O      137.532      49.005    -361.165
  O      137.884      50.694    -359.296
  O      137.493      48.197    -358.656
  H      138.560      51.249    -359.704
  H      136.875      47.048    -360.948
  H      138.193      47.314    -362.119
  H      136.534      47.829    -362.513
  H      138.743      50.250    -366.569
  H      138.450      51.529    -365.415
  H      138.723      49.896    -364.858

 3  4  5  6  7  8  9  10  11  12  13  23  28  29  30  31  32 0
 6-311+G(2d,p)
 ****
 33  34 0
 6-311+G(2d,p)
 ****
 1  2  14  15  16  17  18  19  20  21  22  24  25  26 0
 3-21G
 ****
 27  35  36  37  38  39  40  41  42  43  44  45 0
 3-21G
 ****


