%nproc=1
%NoSave
%Mem=1900MB
#P OB98/GEN NMR

erre ene a

0 1
  C      482.950     558.599     167.038
  O      483.799     559.674     167.389
  H      481.961     559.001     166.796
  H      482.847     557.902     167.872
  H      483.339     558.077     166.157
  P      485.297     559.349     167.855
  C      487.551     558.901     166.680
  O      486.149     559.085     166.520
  C      488.212     558.655     165.316
  O      487.774     557.359     164.842
  C      487.814     559.712     164.273
  O      488.934     560.318     163.636
  C      486.821     558.965     163.385
  O      486.727     559.455     162.064
  C      487.274     557.512     163.499
  N      486.221     556.536     163.227
  C      485.925     556.267     161.895
  O      486.499     556.764     160.926
  N      484.916     555.360     161.687
  C      484.191     554.726     162.648
  O      483.301     553.921     162.394
  C      484.533     555.071     164.033
  C      485.514     555.944     164.261
  O      485.436     558.295     168.902
  O      485.859     560.759     168.366
  H      487.605     559.348     161.642
  H      485.851     560.781     169.340
  H      484.700     555.147     160.722
  H      483.969     554.590     164.824
  H      485.800     556.220     165.272
  H      488.096     557.308     162.810
  H      485.827     559.065     163.835
  H      487.303     560.557     164.748
  H      489.298     558.608     165.455
  H      487.704     558.039     167.337
  H      487.989     559.791     167.147
  P      489.573     561.719     164.069
  C      489.510     562.173     166.648
  O      490.165     561.570     165.547
  O      488.734     562.920     163.796
  O      490.890     561.832     163.141
  H      491.022     562.779     162.953
  H      490.054     561.963     167.545
  H      488.518     561.781     166.732
  H      489.463     563.232     166.499

 6  7  8  9  10  11  12  13  14  15  16  26  31  32  33  34  35 0
 6-311+G(2d,p)
 ****
 36  37 0
 6-311+G(2d,p)
 ****
 1  2  3  4  5  17  18  19  20  21  22  23  24  25 0
 3-21G
 ****
 27  28  29  30  38  39  40  41  42  43  44  45 0
 3-21G
 ****


