%nproc=1
%NoSave
%Mem=1900MB
#P OB98/GEN NMR

erre ene a

0 1
  C      341.727      98.314    -180.348
  O      340.963      98.700    -179.222
  H      341.515      97.265    -180.570
  H      342.795      98.425    -180.140
  H      341.449      98.923    -181.213
  P      341.155     100.207    -178.706
  C      343.567      99.727    -177.936
  O      342.738     100.467    -178.822
  C      344.928     100.409    -177.783
  O      345.540     100.516    -179.094
  C      344.840     101.819    -177.194
  O      345.946     102.033    -176.320
  C      344.970     102.721    -178.409
  O      345.477     104.011    -178.078
  C      345.883     101.895    -179.313
  N      348.231     103.742    -183.449
  C      348.693     103.382    -182.232
  N      347.997     102.882    -181.189
  C      346.702     102.720    -181.516
  C      346.086     103.044    -182.711
  C      346.911     103.589    -183.712
  N      346.444     103.980    -184.945
  N      344.734     102.772    -182.647
  C      344.540     102.279    -181.437
  N      345.699     102.245    -180.711
  O      340.553     100.518    -177.377
  O      340.576     101.049    -179.936
  H      344.889     104.411    -177.405
  H      340.888     100.694    -180.790
  H      349.760     103.520    -182.072
  H      343.586     101.950    -181.038
  H      346.945     102.035    -179.078
  H      343.984     102.857    -178.873
  H      343.906     101.991    -176.657
  H      345.579      99.766    -177.181
  H      343.709      98.709    -178.313
  H      347.108     104.347    -185.608
  H      345.467     103.857    -185.165
  H      343.060      99.673    -176.968
  P      345.668     102.126    -174.744
  C      345.201     104.665    -174.634
  O      344.666     103.352    -174.474
  O      346.872     102.074    -173.864
  O      344.720     100.856    -174.486
  H      344.949     100.462    -173.622
  H      344.440     105.388    -174.427
  H      345.547     104.789    -175.639
  H      346.017     104.803    -173.956

 6  7  8  9  10  11  12  13  14  15  25  28  32  33  34  35 0
 6-311+G(2d,p)
 ****
 36  39  40 0
 6-311+G(2d,p)
 ****
 1  2  3  4  5  16  17  18  19  20  21  22  23  24 0
 3-21G
 ****
 26  27  29  30  31  37  38  41  42  43  44  45  46  47 0
 3-21G
 ****
 48 0
 3-21G
 ****


