%nproc=1
%NoSave
%Mem=1900MB
#P OB98/GEN NMR

erre ene a

0 1
  C     -567.964     -37.924      96.922
  O     -569.188     -37.479      97.470
  P     -570.138     -38.390      98.368
  C     -571.970     -36.604      98.837
  O     -571.651     -37.858      98.236
  C     -573.328     -36.042      98.390
  O     -573.278     -35.748      96.972
  C     -574.428     -37.109      98.572
  O     -575.045     -37.285      99.831
  C     -575.387     -36.894      97.404
  O     -576.533     -36.126      97.776
  C     -574.541     -36.134      96.377
  N     -576.090     -37.201      91.666
  C     -576.478     -36.164      92.494
  N     -577.528     -35.436      92.079
  N     -575.886     -35.883      93.621
  C     -574.892     -36.756      93.951
  C     -574.421     -37.819      93.208
  C     -575.059     -38.091      91.943
  O     -574.803     -39.055      91.220
  N     -573.466     -38.531      93.891
  C     -573.386     -37.930      95.062
  N     -574.265     -36.878      95.155
  O     -569.627     -38.743      99.743
  O     -570.182     -39.757      97.513
  H     -576.219     -35.251      98.078
  H     -570.226     -40.508      98.146
  H     -576.646     -37.420      90.839
  H     -572.747     -38.243      95.878
  H     -575.040     -35.206      96.088
  H     -575.766     -37.854      97.031
  H     -578.104     -35.716      91.287
  H     -573.954     -38.082      98.368
  H     -577.952     -34.776      92.731
  H     -573.551     -35.094      98.883
  H     -571.157     -35.899      98.590
  H     -571.981     -36.711      99.929
  P     -575.862     -38.575     100.314
  C     -577.002     -37.123     102.085
  O     -577.191     -38.085     101.062
  O     -574.975     -39.179     101.524
  O     -576.072     -39.622      99.261
  H     -575.187     -40.120     101.648
  H     -577.901     -37.082     102.715
  H     -576.856     -36.130     101.640
  H     -576.149     -37.383     102.706
  H     -567.515     -37.131      96.361
  H     -568.144     -38.759      96.278
  H     -567.306     -38.219      97.712

 3  4  5  6  7  8  9  10  11  12  23  26  30  31 0
 6-311+G(2d,p)
 ****
 33  35  36  37  38 0
 6-311+G(2d,p)
 ****
 1  2  13  14  15  16  17  18  19  20  21  22  24  25 0
 3-21G
 ****
 27  28  29  32  34  39  40  41  42  43  44  45  46  47  48  49 0
 3-21G
 ****


