%nproc=1
%NoSave
%Mem=1900MB
#P OB98/GEN NMR

erre ene a

0 1
  C     -902.898    -894.250    -199.971
  O     -902.354    -894.710    -198.752
  H     -903.876    -893.820    -199.771
  H     -902.992    -895.080    -200.678
  H     -902.251    -893.470    -200.401
  P     -900.873    -895.350    -198.818
  C     -901.396    -897.790    -198.058
  O     -900.851    -896.520    -197.722
  C     -902.007    -898.450    -196.807
  O     -900.919    -898.980    -195.991
  C     -902.804    -897.470    -195.927
  O     -903.844    -898.200    -195.255
  C     -901.750    -897.060    -194.895
  O     -902.360    -896.470    -193.782
  C     -901.063    -898.410    -194.679
  N     -898.593    -898.960    -190.246
  C     -899.869    -899.240    -190.611
  N     -900.452    -899.070    -191.810
  C     -899.562    -898.570    -192.705
  C     -898.241    -898.230    -192.483
  C     -897.756    -898.440    -191.165
  N     -896.482    -898.130    -190.782
  N     -897.663    -897.740    -193.638
  C     -898.626    -897.780    -194.540
  N     -899.779    -898.290    -194.026
  O     -899.961    -894.200    -198.180
  O     -900.400    -895.740    -200.178
  H     -903.059    -895.840    -194.048
  H     -899.614    -893.620    -198.880
  H     -900.496    -899.660    -189.826
  H     -898.535    -897.450    -195.562
  H     -901.682    -899.090    -194.072
  H     -901.063    -896.320    -195.320
  H     -903.234    -896.630    -196.486
  H     -902.622    -899.300    -197.122
  H     -900.596    -898.410    -198.464
  H     -902.171    -897.660    -198.815
  H     -896.211    -898.270    -189.818
  H     -895.840    -897.710    -191.459
  P     -905.304    -898.250    -195.925
  C     -906.770    -896.510    -194.627
  O     -906.432    -897.870    -194.836
  O     -905.538    -899.830    -196.106
  O     -905.452    -897.550    -197.234
  H     -905.897    -900.000    -197.020
  H     -907.529    -896.443    -193.876
  H     -907.133    -896.088    -195.541
  H     -905.902    -895.972    -194.306

 6  7  8  9  10  11  12  13  14  15  25  28  32  33  34  35 0
 6-311+G(2d,p)
 ****
 36  37  40 0
 6-311+G(2d,p)
 ****
 1  2  3  4  5  16  17  18  19  20  21  22  23  24 0
 3-21G
 ****
 26  27  29  30  31  38  39 41  42  43  44  45  46  47  48 0
 3-21G
 ****


