%nproc=1
%NoSave
%Mem=1900MB
#P OB98/GEN NMR

erre ene a

0 1
  C     -266.513    -903.806     570.822
  O     -267.412    -904.267     569.819
  P     -268.615    -903.266     569.431
  C     -267.662    -902.602     567.111
  O     -268.718    -903.213     567.836
  C     -267.541    -903.217     565.714
  O     -266.919    -904.522     565.738
  C     -268.873    -903.397     565.013
  O     -269.313    -902.172     564.464
  C     -268.523    -904.441     563.949
  O     -267.953    -903.828     562.779
  C     -267.483    -905.310     564.663
  N     -267.734    -910.329     563.943
  C     -267.260    -909.335     563.103
  N     -266.757    -909.743     561.922
  N     -267.267    -908.066     563.411
  C     -267.804    -907.811     564.627
  C     -268.282    -908.690     565.559
  C     -268.261    -910.108     565.208
  O     -268.648    -911.034     565.927
  N     -268.675    -908.067     566.708
  C     -268.568    -906.788     566.426
  N     -267.973    -906.573     565.206
  O     -268.035    -901.822     569.834
  O     -269.897    -903.564     570.150
  H     -267.719    -904.521     562.140
  H     -268.507    -901.483     570.613
  H     -267.710    -911.290     563.665
  H     -268.864    -905.975     567.074
  H     -266.647    -905.574     563.991
  H     -269.410    -904.983     563.614
  H     -266.708    -910.710     561.625
  H     -269.614    -903.812     565.716
  H     -266.399    -909.035     561.303
  H     -266.887    -902.552     565.114
  H     -266.720    -902.729     567.662
  H     -267.852    -901.529     567.055
  P     -270.855    -902.040     564.048
  C     -271.616    -900.398     565.906
  O     -271.366    -900.608     564.543
  O     -271.592    -903.068     565.037
  O     -271.130    -902.377     562.612
  H     -272.239    -903.584     564.534
  H     -271.441    -899.346     566.151
  H     -270.962    -901.021     566.533
  H     -272.655    -900.644     566.126
  H     -265.762    -904.548     570.996
  H     -267.052    -903.625     571.728
  H     -266.050    -902.898     570.496

 3  4  5  6  7  8  9  10  11  12  23  26  30  31 0
 6-311+G(2d,p)
 ****
 33  35  36  37  38 0
 6-311+G(2d,p)
 ****
 1  2  13  14  15  16  17  18  19  20  21  22  24  25 0
 3-21G
 ****
 27  28  29  32  34  39  40  41  42  43  44  45  46  47  48  49 0
 3-21G
 ****


