%nproc=1
%NoSave
%Mem=1900MB
#P OB98/GEN NMR

erre ene a

0 1
  C     -423.628    -300.712     127.753
  O     -423.167    -300.169     128.972
  H     -422.860    -300.563     126.989
  H     -424.538    -300.197     127.436
  H     -423.822    -301.783     127.856
  P     -424.068    -300.414     130.277
  C     -422.047    -301.382     131.586
  O     -423.069    -300.399     131.534
  C     -420.822    -300.839     132.325
  O     -420.044    -300.029     131.407
  C     -421.169    -299.976     133.539
  O     -420.223    -300.242     134.578
  C     -420.983    -298.557     133.037
  O     -420.698    -297.633     134.087
  C     -419.852    -298.735     132.014
  N     -419.851    -297.665     131.023
  C     -419.114    -296.521     131.335
  O     -418.512    -296.444     132.408
  N     -419.120    -295.467     130.458
  C     -419.869    -295.517     129.400
  N     -419.856    -294.428     128.584
  C     -420.716    -296.676     129.063
  C     -420.655    -297.708     129.905
  O     -424.484    -301.953     130.158
  O     -425.251    -299.513     130.415
  H     -421.546    -297.386     134.517
  H     -425.365    -302.113     130.548
  H     -421.344    -296.662     128.185
  H     -421.245    -298.601     129.745
  H     -418.875    -298.751     132.520
  H     -421.898    -298.223     132.533
  H     -422.182    -300.150     133.917
  H     -420.190    -301.688     132.617
  H     -419.275    -293.643     128.859
  H     -421.758    -301.649     130.565
  H     -420.431    -294.339     127.760
  H     -422.430    -302.277     132.089
  P     -420.658    -299.855     136.069
  C     -420.834    -302.310     136.904
  O     -420.206    -301.043     137.045
  O     -422.253    -299.980     136.032
  O     -420.222    -298.490     136.487
  H     -422.657    -299.094     136.067
  H     -420.427    -302.992     137.621
  H     -420.662    -302.686     135.917
  H     -421.886    -302.207     137.067

 6  7  8  9  10  11  12  13  14  15  16  26  30  31  32  33  35 0
 6-311+G(2d,p)
 ****
 37  38 0
 6-311+G(2d,p)
 ****
 1  2  3  4  5  17  18  19  20  21  22  23  24  25 0
 3-21G
 ****
 27  28  29  34  36  39  40  41  42  43  44  45  46 0
 3-21G
 ****


