%nproc=1
%NoSave
%Mem=1900MB
#P OB98/GEN NMR

erre ene a

0 1
  C     -199.379      78.563    -283.382
  O     -199.034      78.513    -282.012
  H     -199.280      77.559    -283.805
  H     -198.708      79.236    -283.922
  H     -200.414      78.893    -283.505
  P     -199.096      79.871    -281.165
  C     -196.674      80.656    -280.739
  O     -197.804      80.718    -281.598
  C     -195.827      79.435    -281.076
  O     -195.504      79.419    -282.480
  C     -194.498      79.374    -280.325
  O     -194.691      78.868    -279.016
  C     -193.716      78.430    -281.223
  O     -194.151      77.075    -280.999
  C     -194.152      78.903    -282.622
  N     -189.520      80.078    -284.312
  C     -189.983      78.912    -283.733
  N     -189.070      77.937    -283.539
  N     -191.223      78.729    -283.360
  C     -192.004      79.815    -283.550
  C     -191.656      81.029    -284.099
  C     -190.294      81.202    -284.558
  O     -189.846      82.212    -285.092
  N     -192.704      81.915    -284.069
  C     -193.694      81.222    -283.541
  N     -193.318      79.947    -283.195
  O     -199.250      79.722    -279.682
  O     -200.308      80.683    -281.818
  H     -193.653      76.516    -281.622
  H     -201.144      80.506    -281.353
  H     -188.548      80.164    -284.559
  H     -194.701      81.594    -283.388
  H     -194.186      78.082    -283.346
  H     -192.642      78.461    -281.047
  H     -188.075      78.128    -283.540
  H     -193.991      80.345    -280.318
  H     -189.379      77.095    -283.070
  H     -196.432      78.540    -280.877
  H     -197.043      80.594    -279.710
  H     -196.069      81.563    -280.840
  P     -193.547      79.003    -277.897
  C     -192.239      76.795    -277.592
  O     -192.398      77.983    -278.355
  O     -194.018      78.822    -276.493
  O     -192.879      80.426    -278.176
  H     -193.323      81.171    -277.702
  H     -191.444      76.210    -278.004
  H     -193.148      76.230    -277.618
  H     -192.006      77.050    -276.579

 6  7  8  9  10  11  12  13  14  15  26  29  33  34 0
 6-311+G(2d,p)
 ****
 36  38  39  40  41 0
 6-311+G(2d,p)
 ****
 1  2  3  4  5  16  17  18  19  20  21  22  23  24  25 0
 3-21G
 ****
 27  28  30  31  32  35  37  42  43  44  45  46  47 0
 3-21G
 ****
 48  49 0
 3-21G
 ****


