%nproc=1
%NoSave
%Mem=1900MB
#P OB98/GEN NMR

erre ene a

0 1
  C      244.343     129.793     208.646
  O      243.770     129.698     209.939
  P      242.630     128.623     210.253
  C      244.249     126.757     211.143
  O      243.281     127.168     210.202
  C      244.403     125.234     211.064
  O      243.243     124.586     211.629
  C      244.550     124.758     209.620
  O      245.920     124.626     209.276
  C      243.798     123.441     209.626
  O      244.630     122.389     210.149
  C      242.641     123.748     210.607
  N      241.453     124.448     210.083
  C      240.543     123.760     209.286
  O      240.648     122.570     209.003
  N      239.502     124.505     208.793
  C      239.270     125.824     209.057
  O      238.490     126.530     208.428
  C      240.101     126.413     210.110
  C      241.151     125.720     210.550
  O      241.718     128.667     208.940
  O      241.837     128.873     211.494
  H      244.062     121.606     210.265
  H      240.932     129.224     209.085
  H      238.917     124.047     208.101
  H      239.864     127.411     210.453
  H      241.804     126.152     211.304
  H      242.287     122.833     211.094
  H      243.525     123.140     208.617
  H      244.040     125.451     208.939
  H      245.277     124.934     211.655
  H      243.944     127.059     212.151
  H      245.206     127.245     210.935
  P      246.342     124.540     207.735
  C      245.327     126.880     207.490
  O      245.373     125.566     206.974
  O      246.400     123.165     207.158
  O      247.774     125.258     207.707
  H      248.485     124.583     207.730
  H      244.782     127.516     206.788
  H      246.338     127.278     207.621
  H      244.801     126.881     208.450
  H      245.082     130.567     208.639
  H      243.579     130.023     207.933
  H      244.801     128.861     208.389

 3  4  5  6  7  8  9  10  11  12  13  23  28  29  30  31  32 0
 6-311+G(2d,p)
 ****
 33  34 0
 6-311+G(2d,p)
 ****
 1  2  14  15  16  17  18  19  20  21  22  24  25  26  27 0
 3-21G
 ****
 35  36  37  38  39  40  41  42  43  44  45 0
 3-21G
 ****


