%nproc=1
%NoSave
%Mem=1900MB
#P OB98/GEN NMR

erre ene a

0 1
  C      -35.377     326.987     338.354
  O      -35.751     328.336     338.142
  P      -34.588     329.436     338.080
  C      -34.756     331.066     340.112
  O      -34.242     329.847     339.590
  C      -36.208     330.867     340.554
  O      -36.309     329.723     341.436
  C      -36.768     332.039     341.345
  O      -37.150     333.105     340.494
  C      -37.940     331.393     342.069
  O      -39.098     331.331     341.224
  C      -37.395     329.974     342.349
  N      -36.989     329.794     343.737
  C      -37.950     329.257     344.592
  O      -39.087     328.966     344.221
  N      -37.571     329.101     345.895
  C      -36.372     329.472     346.435
  O      -36.109     329.359     347.625
  C      -35.403     330.064     345.488
  C      -35.755     330.200     344.209
  O      -35.314     330.735     337.491
  O      -33.405     329.042     337.261
  H      -39.321     332.254     340.988
  H      -34.698     331.226     336.913
  H      -38.241     328.693     346.524
  H      -34.445     330.371     345.888
  H      -35.066     330.645     343.501
  H      -38.162     329.223     342.121
  H      -38.229     331.947     342.969
  H      -36.033     332.380     342.086
  H      -36.818     330.669     339.667
  H      -34.708     331.833     339.333
  H      -34.134     331.385     340.950
  P      -37.452     334.523     341.182
  C      -39.956     335.265     341.180
  O      -38.964     334.416     341.706
  O      -37.521     335.474     339.896
  O      -36.424     334.911     342.188
  H      -37.872     335.009     339.117
  H      -39.793     335.469     340.119
  H      -39.960     336.209     341.734
  H      -40.933     334.786     341.302
  H      -36.253     326.373     338.372
  H      -34.863     326.902     339.289
  H      -34.733     326.667     337.562

 3  4  5  6  7  8  9  10  11  12  13  23  28  29  30  31  32 0
 6-311+G(2d,p)
 ****
 33  34 0
 6-311+G(2d,p)
 ****
 1  2  14  15  16  17  18  19  20  21  22  24  25  26 0
 3-21G
 ****
 27  35  36  37  38  39  40  41  42  43  44  45 0
 3-21G
 ****


