%nproc=1
%NoSave
%Mem=1900MB
#P OB98/GEN NMR

erre ene a

0 1
  C     -184.643     202.649     111.187
  O     -184.398     203.491     110.079
  H     -184.364     203.179     112.100
  H     -184.036     201.743     111.106
  H     -185.703     202.384     111.240
  P     -184.828     202.935     108.636
  C     -183.866     201.087     107.090
  O     -184.015     201.563     108.420
  C     -182.416     201.217     106.629
  O     -182.122     202.626     106.387
  C     -181.380     200.700     107.643
  O     -180.293     200.124     106.913
  C     -180.884     201.979     108.301
  O     -179.604     201.819     108.908
  C     -180.906     202.926     107.100
  N     -177.788     206.815     107.808
  C     -177.541     205.538     107.338
  N     -176.264     205.251     107.006
  N     -178.462     204.624     107.208
  C     -179.700     205.058     107.545
  C     -180.078     206.289     108.027
  C     -179.041     207.287     108.193
  O     -179.197     208.427     108.622
  N     -181.428     206.328     108.280
  C     -181.863     205.125     107.951
  N     -180.853     204.319     107.501
  O     -184.110     203.961     107.637
  O     -186.298     202.853     108.393
  H     -178.963     201.589     108.202
  H     -184.722     204.680     107.394
  H     -177.041     207.478     107.902
  H     -182.889     204.786     108.024
  H     -180.058     202.759     106.422
  H     -181.590     202.308     109.073
  H     -175.510     205.920     107.036
  H     -181.774     199.971     108.360
  H     -176.068     204.335     106.618
  H     -182.307     200.704     105.666
  H     -184.508     201.680     106.427
  H     -184.180     200.039     107.044
  P     -179.781     198.668     107.347
  C     -178.120     197.692     109.094
  O     -178.658     198.851     108.477
  O     -178.929     198.196     106.076
  O     -180.875     197.703     107.668
  H     -178.931     197.222     106.015
  H     -177.389     197.981     109.820
  H     -177.661     197.073     108.352
  H     -178.905     197.148     109.576

 6  7  8  9  10  11  12  13  14  15  26  29  33  34 0
 6-311+G(2d,p)
 ****
 36  38  39  40  41 0
 6-311+G(2d,p)
 ****
 1  2  3  4  5  16  17  18  19  20  21  22  23  24  25 0
 3-21G
 ****
 27  28  30  31  32  35  37  42  43  44  45  46  47 0
 3-21G
 ****
 48  49 0
 3-21G
 ****


