%nproc=1
%NoSave
%Mem=1900MB
#P OB98/GEN NMR

erre ene a

0 1
  C       23.888     293.464    -154.062
  O       24.950     292.581    -154.365
  H       23.125     292.921    -153.499
  H       23.443     293.825    -154.995
  H       24.235     294.309    -153.465
  P       26.339     293.236    -154.827
  C       28.387     294.281    -153.619
  O       27.154     293.588    -153.487
  C       29.326     293.918    -152.469
  O       28.741     294.401    -151.221
  C       29.579     292.409    -152.314
  O       30.938     292.203    -151.908
  C       28.675     292.038    -151.151
  O       29.104     290.851    -150.485
  C       28.776     293.296    -150.296
  N       27.444     291.793    -145.694
  C       28.667     291.738    -146.339
  N       29.683     291.135    -145.683
  N       28.876     292.230    -147.533
  C       27.781     292.823    -148.068
  C       26.521     292.941    -147.536
  C       26.295     292.373    -146.222
  O       25.235     292.373    -145.607
  N       25.667     293.556    -148.423
  C       26.409     293.794    -149.494
  N       27.699     293.365    -149.323
  O       25.884     294.670    -155.381
  O       27.100     292.461    -155.851
  H       28.510     290.700    -149.726
  H       25.753     294.624    -156.347
  H       27.333     291.381    -144.783
  H       26.061     294.249    -150.409
  H       29.719     293.347    -149.733
  H       27.646     291.882    -151.504
  H       29.607     290.759    -144.751
  H       29.368     291.825    -153.219
  H       30.593     291.123    -146.124
  H       30.270     294.454    -152.610
  H       28.200     295.359    -153.600
  H       28.841     294.019    -154.581
  P       31.896     291.352    -152.872
  C       34.198     291.727    -154.029
  O       33.059     292.310    -153.414
  O       30.983     291.120    -154.168
  O       32.350     290.062    -152.284
  H       31.177     290.249    -154.558
  H       34.874     292.499    -154.332
  H       33.892     291.164    -154.886
  H       34.687     291.078    -153.332

 6  7  8  9  10  11  12  13  14  15  26  29  33  34 0
 6-311+G(2d,p)
 ****
 36  38  39  40  41 0
 6-311+G(2d,p)
 ****
 1  2  3  4  5  16  17  18  19  20  21  22  23  24  25 0
 3-21G
 ****
 27  28  30  31  32  35  37  42  43  44  45  46  47 0
 3-21G
 ****
 48  49 0
 3-21G
 ****


