%nproc=1
%NoSave
%Mem=1900MB
#P OB98/GEN NMR

erre ene a

0 1
  C      305.626    -145.941    -240.320
  O      306.096    -144.900    -239.451
  P      307.121    -145.305    -238.284
  C      309.334    -144.396    -239.315
  O      308.565    -145.534    -238.947
  C      310.685    -144.408    -238.607
  O      311.595    -145.344    -239.226
  C      311.401    -143.067    -238.647
  O      310.845    -142.174    -237.700
  C      312.845    -143.462    -238.347
  O      313.123    -143.444    -236.940
  C      312.934    -144.905    -238.910
  N      313.810    -145.007    -240.065
  C      315.143    -144.614    -239.858
  O      315.498    -144.194    -238.764
  N      316.017    -144.694    -240.916
  C      315.596    -145.093    -242.084
  N      316.508    -145.140    -243.082
  C      314.204    -145.493    -242.343
  C      313.369    -145.420    -241.296
  O      306.653    -146.782    -237.886
  O      307.092    -144.382    -237.112
  H      313.904    -144.015    -236.814
  H      306.814    -146.939    -236.940
  H      313.892    -145.811    -243.330
  H      312.319    -145.694    -241.400
  H      313.306    -145.590    -238.135
  H      313.553    -142.776    -238.824
  H      311.340    -142.643    -239.665
  H      310.525    -144.713    -237.565
  H      317.458    -144.863    -242.866
  H      308.793    -143.476    -239.078
  H      316.286    -145.433    -244.032
  H      309.464    -144.412    -240.414
  P      310.983    -140.604    -237.973
  C      309.118    -140.584    -239.750
  O      310.499    -140.411    -239.501
  O      312.572    -140.430    -238.120
  O      310.399    -139.674    -236.971
  H      312.798    -139.484    -238.195
  H      308.883    -140.217    -240.758
  H      308.520    -140.001    -239.025
  H      308.851    -141.643    -239.687
  H      304.955    -145.526    -241.043
  H      305.115    -146.683    -239.743
  H      306.458    -146.390    -240.821

 3  4  5  6  7  8  9  10  11  12  13  21  23  27  28  29  30  32 0
 6-311+G(2d,p)
 ****
 34  35 0
 6-311+G(2d,p)
 ****
 1  2  14  15  16  17  18  19  20  22  24  25  26 0
 3-21G
 ****
 31  33  36  37  38  39  40  41  42  43  44  45  46 0
 3-21G
 ****


