%nproc=1
%NoSave
%Mem=1900MB
#P OB98/GEN NMR

erre ene a

0 1
  C      -77.416     311.682    -233.369
  O      -77.527     313.090    -233.306
  H      -78.299     311.242    -232.899
  H      -76.527     311.354    -232.825
  H      -77.365     311.350    -234.410
  P      -76.419     313.937    -234.107
  C      -77.820     316.140    -234.357
  O      -76.723     315.472    -233.761
  C      -79.077     315.972    -233.504
  O      -78.766     316.346    -232.139
  C      -80.257     316.828    -233.965
  O      -81.461     316.083    -233.775
  C      -80.226     318.016    -233.019
  O      -81.503     318.643    -232.912
  C      -79.696     317.370    -231.732
  N      -79.062     318.343    -230.844
  C      -79.894     318.995    -229.928
  O      -81.101     318.756    -229.910
  N      -79.349     319.931    -229.087
  C      -78.096     320.243    -229.197
  N      -77.621     321.195    -228.348
  C      -77.193     319.621    -230.184
  C      -77.733     318.683    -230.959
  O      -76.920     313.777    -235.618
  O      -75.016     313.489    -233.867
  H      -82.156     317.958    -232.645
  H      -77.883     313.848    -235.718
  H      -76.158     319.926    -230.248
  H      -77.139     318.168    -231.706
  H      -80.510     316.882    -231.182
  H      -79.515     318.766    -233.387
  H      -80.183     317.143    -235.005
  H      -79.343     314.909    -233.484
  H      -78.277     321.611    -227.699
  H      -78.006     315.746    -235.360
  H      -76.678     321.552    -228.380
  H      -77.563     317.200    -234.449
  P      -82.020     315.179    -234.973
  C      -82.633     313.188    -233.454
  O      -83.102     314.150    -234.387
  O      -80.990     314.574    -235.866
  O      -82.942     316.210    -235.794
  H      -82.828     316.020    -236.746
  H      -83.447     312.567    -233.142
  H      -82.220     313.688    -232.603
  H      -81.879     312.584    -233.913

 6  7  8  9  10  11  12  13  14  15  16  26  30  31  32  33  35 0
 6-311+G(2d,p)
 ****
 37  38 0
 6-311+G(2d,p)
 ****
 1  2  3  4  5  17  18  19  20  21  22  23  24  25 0
 3-21G
 ****
 27  28  29  34  36  39  40  41  42  43  44  45  46 0
 3-21G
 ****


