%nproc=1
%NoSave
%Mem=1900MB
#P OB98/GEN NMR

erre ene a

0 1
  C      170.613      60.045     -29.186
  O      169.737      58.955     -28.990
  H      171.459      59.941     -28.498
  H      170.102      60.987     -28.967
  H      170.996      60.059     -30.210
  P      168.494      58.774     -29.989
  C      166.484      60.294     -30.540
  O      167.368      59.819     -29.530
  C      165.040      60.209     -30.052
  O      164.638      58.825     -29.936
  C      164.821      60.811     -28.669
  O      164.812      62.226     -28.712
  C      163.500      60.167     -28.281
  O      162.394      60.869     -28.862
  C      163.636      58.755     -28.896
  N      163.984      57.751     -27.891
  C      162.951      57.331     -27.059
  O      161.798      57.753     -27.139
  N      163.301      56.446     -26.071
  C      164.577      56.064     -25.761
  O      164.872      55.472     -24.726
  C      165.619      56.488     -26.712
  C      165.280      57.309     -27.711
  O      168.020      57.371     -30.183
  O      169.024      59.405     -31.364
  H      169.280      58.683     -31.971
  H      162.583      60.919     -29.823
  H      162.564      56.171     -25.434
  H      166.633      56.143     -26.544
  H      166.038      57.663     -28.407
  H      162.698      58.456     -29.381
  H      163.361      60.160     -27.198
  H      165.602      60.459     -27.982
  H      164.393      60.691     -30.796
  H      166.604      59.670     -31.436
  H      166.749      61.328     -30.789
  P      165.684      63.073     -27.669
  C      165.597      63.714     -25.179
  O      164.996      62.955     -26.224
  O      166.009      64.466     -28.095
  O      167.022      62.208     -27.490
  H      167.797      62.795     -27.607
  H      165.057      63.558     -24.269
  H      165.573      64.753     -25.434
  H      166.612      63.401     -25.050

 6  7  8  9  10  11  12  13  14  15  16  27  31  32  33  34  35 0
 6-311+G(2d,p)
 ****
 36  37 0
 6-311+G(2d,p)
 ****
 1  2  3  4  5  17  18  19  20  21  22  23  24  25 0
 3-21G
 ****
 26  28  29  30  38  39  40  41  42  43  44  45 0
 3-21G
 ****


