%nproc=1
%NoSave
%Mem=1900MB
#P OB98/GEN NMR

erre ene a

0 1
  C      101.812       8.411      -9.014
  O      102.162       9.057     -10.220
  H      102.175       9.011      -8.176
  H      102.280       7.425      -8.966
  H      100.726       8.310      -8.927
  P      101.574       8.492     -11.599
  C      103.622       6.948     -11.864
  O      102.204       7.034     -11.809
  C      104.043       5.543     -12.279
  O      103.425       4.562     -11.419
  C      103.632       5.165     -13.698
  O      104.473       5.787     -14.651
  C      103.748       3.650     -13.632
  O      105.115       3.235     -13.776
  C      103.232       3.363     -12.202
  N      101.834       2.936     -12.170
  C      101.596       1.581     -12.371
  O      102.490       0.769     -12.605
  N      100.285       1.189     -12.312
  C       99.210       2.016     -12.160
  O       98.048       1.620     -12.168
  C       99.519       3.442     -11.987
  C      100.796       3.830     -11.999
  O      101.691       9.402     -12.777
  O      100.043       8.174     -11.252
  H      105.102       2.264     -13.880
  H       99.475       8.894     -11.583
  H      100.092       0.213     -12.468
  H       98.691       4.128     -11.870
  H      101.043       4.879     -11.879
  H      103.838       2.581     -11.730
  H      103.184       3.150     -14.419
  H      102.583       5.429     -13.872
  H      105.131       5.461     -12.155
  H      104.026       7.172     -10.870
  H      103.995       7.691     -12.575
  P      103.920       6.179     -16.099
  C      105.202       4.409     -17.434
  O      103.922       4.845     -16.994
  O      104.579       7.356     -16.736
  O      102.362       6.449     -15.857
  H      102.183       7.410     -15.892
  H      105.094       3.519     -18.018
  H      105.821       4.205     -16.585
  H      105.654       5.174     -18.030

 6  7  8  9  10  11  12  13  14  15  16  26  31  32  33  34  35 0
 6-311+G(2d,p)
 ****
 36  37 0
 6-311+G(2d,p)
 ****
 1  2  3  4  5  17  18  19  20  21  22  23  24  25 0
 3-21G
 ****
 27  28  29  30  38  39  40  41  42  43  44  45 0
 3-21G
 ****


