%nproc=1
%NoSave
%Mem=1900MB
#P OB98/GEN NMR

erre ene a

0 1
  C      177.444     237.140    -138.415
  O      176.270     237.104    -137.627
  H      178.309     236.990    -137.761
  H      177.539     238.111    -138.910
  H      177.423     236.340    -139.163
  P      174.883     237.331    -138.404
  C      173.631     239.478    -137.658
  O      174.659     238.922    -138.465
  C      174.056     239.499    -136.193
  O      175.405     239.996    -136.058
  C      173.181     240.366    -135.295
  O      172.012     239.676    -134.891
  C      174.127     240.647    -134.140
  O      174.169     239.546    -133.211
  C      175.475     240.808    -134.856
  N      178.827     244.538    -134.208
  C      178.840     243.233    -133.749
  N      179.880     242.889    -132.954
  N      177.920     242.351    -134.037
  C      176.925     242.846    -134.810
  C      176.806     244.113    -135.339
  C      177.850     245.070    -135.040
  O      177.928     246.218    -135.470
  N      175.663     244.228    -136.092
  C      175.078     243.053    -135.987
  N      175.797     242.184    -135.204
  O      173.779     236.846    -137.346
  O      174.751     236.610    -139.704
  H      174.668     238.811    -133.603
  H      173.012     236.486    -137.829
  H      179.574     245.163    -133.970
  H      174.141     242.781    -136.454
  H      176.311     240.431    -134.256
  H      173.819     241.527    -133.563
  H      180.413     243.582    -132.446
  H      172.929     241.313    -135.795
  H      179.887     241.940    -132.597
  H      174.056     238.458    -135.835
  H      172.728     238.866    -137.762
  H      173.415     240.497    -138.001
  P      170.870     240.515    -134.136
  C      170.639     239.618    -131.702
  O      171.274     240.534    -132.584
  O      169.606     239.530    -134.172
  O      170.567     241.842    -134.744
  H      168.789     240.033    -133.984
  H      171.016     239.758    -130.710
  H      170.840     238.617    -132.022
  H      169.583     239.790    -131.709

 6  7  8  9  10  11  12  13  14  15  26  29  33  34 0
 6-311+G(2d,p)
 ****
 36  38  39  40  41 0
 6-311+G(2d,p)
 ****
 1  2  3  4  5  16  17  18  19  20  21  22  23  24  25 0
 3-21G
 ****
 27  28  30  31  32  35  37  42  43  44  45  46  47 0
 3-21G
 ****
 48  49 0
 3-21G
 ****


