%nproc=1
%NoSave
%Mem=1900MB
#P OB98/GEN NMR

erre ene a

0 1
  C      -72.711    -588.557     225.737
  O      -71.817    -589.629     225.527
  H      -72.742    -588.331     226.805
  H      -73.716    -588.833     225.404
  H      -72.374    -587.668     225.200
  P      -71.595    -590.112     224.007
  C      -72.759    -592.399     224.433
  O      -72.779    -591.163     223.731
  C      -72.031    -593.473     223.610
  O      -71.559    -594.512     224.497
  C      -72.928    -594.130     222.551
  O      -72.190    -594.269     221.336
  C      -73.263    -595.490     223.137
  O      -73.560    -596.452     222.127
  C      -72.019    -595.780     223.986
  N      -72.309    -596.713     225.080
  C      -71.985    -598.060     224.863
  O      -71.487    -598.413     223.790
  N      -72.279    -598.974     225.840
  C      -72.898    -598.597     226.913
  N      -73.179    -599.559     227.836
  C      -73.307    -597.200     227.158
  C      -72.981    -596.322     226.212
  O      -70.290    -591.029     224.114
  O      -71.489    -589.017     222.999
  H      -73.684    -597.325     222.572
  H      -69.912    -591.222     223.221
  H      -73.841    -596.935     228.060
  H      -73.245    -595.269     226.309
  H      -71.218    -596.214     223.369
  H      -74.141    -595.401     223.786
  H      -73.836    -593.564     222.348
  H      -71.143    -593.016     223.149
  H      -72.900    -600.511     227.626
  H      -73.788    -592.720     224.626
  H      -73.691    -599.382     228.693
  H      -72.236    -592.259     225.388
  P      -72.824    -593.554     220.040
  C      -73.792    -595.596     218.758
  O      -74.072    -594.445     219.557
  O      -71.717    -593.780     218.903
  O      -73.141    -592.111     220.253
  H      -71.173    -592.977     218.793
  H      -74.708    -596.090     218.511
  H      -73.162    -596.266     219.306
  H      -73.296    -595.294     217.859

 6  7  8  9  10  11  12  13  14  15  16  26  30  31  32  33  35 0
 6-311+G(2d,p)
 ****
 37  38 0
 6-311+G(2d,p)
 ****
 1  2  3  4  5  17  18  19  20  21  22  23  24  25 0
 3-21G
 ****
 27  28  29  34  36  39  40  41  42  43  44  45  46 0
 3-21G
 ****


