%nproc=1
%NoSave
%Mem=1900MB
#P OB98/GEN NMR

erre ene a

0 1
  C      778.682     366.746     410.034
  O      777.725     365.806     409.591
  H      779.263     367.090     409.176
  H      779.362     366.275     410.754
  H      778.188     367.603     410.497
  P      776.624     365.351     410.663
  C      776.531     363.506     412.525
  O      777.329     364.306     411.666
  C      777.112     362.096     412.614
  O      777.136     361.468     411.316
  C      778.561     362.046     413.063
  O      778.719     362.324     414.438
  C      778.923     360.611     412.698
  O      778.535     359.687     413.720
  C      778.092     360.387     411.409
  N      778.935     360.295     410.231
  C      779.424     359.004     409.939
  O      779.116     358.057     410.659
  N      780.275     358.846     408.882
  C      780.630     359.894     408.184
  N      781.513     359.668     407.167
  C      780.139     361.257     408.455
  C      779.304     361.383     409.480
  O      775.659     364.423     409.786
  O      775.927     366.474     411.359
  H      777.608     359.909     413.951
  H      776.126     363.754     409.261
  H      780.462     362.078     407.835
  H      778.901     362.353     409.749
  H      777.512     359.460     411.490
  H      779.999     360.492     412.552
  H      779.171     362.721     412.451
  H      776.466     361.499     413.281
  H      781.855     358.724     407.050
  H      775.497     363.470     412.173
  H      781.917     360.405     406.609
  H      776.525     363.980     413.513
  P      780.081     362.924     415.020
  C      781.955     361.827     416.417
  O      781.043     361.669     415.329
  O      779.939     363.873     416.160
  O      780.783     363.555     413.721
  H      780.954     362.929     413.004
  H      782.537     360.936     416.527
  H      781.407     362.008     417.318
  H      782.604     362.655     416.221

 6  7  8  9  10  11  12  13  14  15  16  26  30  31  32  33  35 0
 6-311+G(2d,p)
 ****
 37  38 0
 6-311+G(2d,p)
 ****
 1  2  3  4  5  17  18  19  20  21  22  23  24  25 0
 3-21G
 ****
 27  28  29  34  36  39  40  41  42  43  44  45  46 0
 3-21G
 ****


