%nproc=1
%NoSave
%Mem=1900MB
#P OB98/GEN NMR

erre ene a

0 1
  C     -367.374     536.845    -671.892
  O     -367.713     535.788    -672.772
  H     -367.597     536.539    -670.870
  H     -367.949     537.737    -672.135
  H     -366.301     537.066    -671.967
  P     -367.431     536.035    -674.334
  C     -365.582     534.216    -674.593
  O     -366.909     534.635    -674.924
  C     -365.459     532.714    -674.807
  O     -366.077     531.997    -673.714
  C     -366.159     532.200    -676.073
  O     -365.394     532.457    -677.251
  C     -366.304     530.723    -675.740
  O     -365.104     529.988    -676.039
  C     -366.560     530.732    -674.232
  N     -370.377     527.356    -673.966
  C     -369.058     527.214    -674.252
  N     -368.102     528.161    -674.284
  C     -368.624     529.367    -673.967
  C     -369.943     529.661    -673.649
  C     -370.844     528.583    -673.658
  N     -372.197     528.732    -673.388
  N     -370.091     531.021    -673.417
  C     -368.889     531.536    -673.584
  N     -367.962     530.561    -673.900
  O     -366.125     536.957    -674.325
  O     -368.558     536.664    -675.085
  H     -364.396     530.427    -675.511
  H     -366.387     537.890    -674.463
  H     -368.735     526.189    -674.476
  H     -368.624     532.576    -673.480
  H     -365.996     529.943    -673.712
  H     -367.117     530.276    -676.319
  H     -367.155     532.650    -676.148
  H     -364.386     532.438    -674.815
  H     -365.373     534.449    -673.536
  H     -364.871     534.755    -675.232
  H     -372.787     527.941    -673.489
  H     -372.566     529.669    -673.274
  P     -366.213     532.783    -678.580
  C     -365.616     535.331    -678.593
  O     -365.529     534.073    -679.251
  O     -367.624     533.343    -678.057
  O     -366.386     531.618    -679.511
  H     -368.336     533.059    -678.666
  H     -365.110     536.073    -679.174
  H     -365.159     535.261    -677.628
  H     -366.644     535.605    -678.482

 6  7  8  9  10  11  12  13  14  15  25  28  32  33  34  35 0
 6-311+G(2d,p)
 ****
 36  37  40 0
 6-311+G(2d,p)
 ****
 1  2  3  4  5  16  17  18  19  20  21  22  23  24 0
 3-21G
 ****
 26  27  29  30  31  38  39 41  42  43  44  45  46  47  48 0
 3-21G
 ****


