%nproc=1
%NoSave
%Mem=1900MB
#P OB98/GEN NMR

erre ene a

0 1
  C       87.842     185.996    -193.125
  O       86.842     186.937    -193.499
  P       87.301     188.232    -194.327
  C       84.885     188.718    -195.145
  O       86.231     188.409    -195.504
  C       83.966     188.609    -196.358
  O       84.016     187.271    -196.912
  C       82.492     188.875    -196.075
  O       82.197     190.269    -196.046
  C       81.840     188.227    -197.274
  O       81.928     189.096    -198.421
  C       82.712     186.977    -197.488
  N       79.156     183.309    -197.885
  C       79.407     184.408    -198.631
  N       80.365     185.345    -198.465
  C       81.090     185.078    -197.357
  C       80.927     184.017    -196.465
  C       79.915     183.090    -196.777
  N       79.666     181.961    -196.033
  N       81.859     184.078    -195.449
  C       82.568     185.157    -195.712
  N       82.151     185.791    -196.858
  O       88.617     187.724    -195.106
  O       87.574     189.448    -193.501
  H       81.503     189.942    -198.174
  H       89.185     188.480    -195.329
  H       78.762     184.554    -199.493
  H       83.408     185.506    -195.121
  H       82.868     186.750    -198.552
  H       80.770     188.022    -197.119
  H       82.170     188.372    -195.152
  H       84.338     189.298    -197.134
  H       84.844     189.737    -194.761
  H       79.057     181.252    -196.415
  H       80.367     181.702    -195.329
  H       84.552     188.018    -194.355
  P       81.791     190.896    -194.631
  C       83.380     192.957    -194.689
  O       83.087     191.696    -194.115
  O       81.719     189.618    -193.662
  O       80.512     191.670    -194.639
  H       81.112     189.779    -192.917
  H       84.089     193.481    -194.037
  H       82.484     193.561    -194.784
  H       83.847     192.829    -195.669
  H       87.390     185.192    -192.582
  H       88.572     186.477    -192.508
  H       88.316     185.611    -194.004

 3  4  5  6  7  8  9  10  11  12  22  25  29  30  31  32 0
 6-311+G(2d,p)
 ****
 33  36  37 0
 6-311+G(2d,p)
 ****
 1  2  13  14  15  16  17  18  19  20  21  23  24  26 0
 3-21G
 ****
 27  28  34  35  38  39  40  41  42  43  44  45  46  47  48 0
 3-21G
 ****


