%nproc=1
%NoSave
%Mem=1900MB
#P OB98/GEN NMR

erre ene a

0 1
  C     -285.619    -286.952     -45.189
  O     -285.490    -288.359     -45.125
  H     -285.634    -286.621     -46.231
  H     -286.559    -286.666     -44.714
  H     -284.793    -286.476     -44.656
  P     -284.216    -288.993     -45.867
  C     -285.483    -288.714     -48.114
  O     -284.283    -288.487     -47.390
  C     -285.416    -288.030     -49.475
  O     -285.267    -286.605     -49.311
  C     -284.246    -288.464     -50.348
  O     -284.485    -289.715     -50.981
  C     -284.212    -287.322     -51.358
  O     -285.214    -287.540     -52.368
  C     -284.588    -286.109     -50.495
  N     -280.700    -283.140     -52.063
  C     -281.670    -283.792     -52.747
  N     -282.662    -284.571     -52.265
  C     -282.608    -284.637     -50.925
  C     -281.683    -284.025     -50.095
  C     -280.686    -283.253     -50.718
  N     -279.694    -282.605     -50.010
  N     -281.950    -284.310     -48.772
  C     -283.022    -285.076     -48.802
  N     -283.450    -285.308     -50.080
  O     -284.582    -290.550     -45.979
  O     -282.906    -288.787     -45.179
  H     -285.150    -286.791     -52.990
  H     -283.768    -291.074     -45.873
  H     -281.646    -283.671     -53.827
  H     -283.517    -285.482     -47.926
  H     -285.295    -285.453     -51.014
  H     -283.252    -287.229     -51.866
  H     -283.309    -288.474     -49.780
  H     -286.372    -288.212     -49.991
  H     -286.329    -288.306     -47.547
  H     -279.138    -281.915     -50.485
  H     -279.697    -282.690     -48.998
  H     -285.623    -289.791     -48.235
  P     -283.255    -290.745     -51.073
  C     -282.414    -289.469     -53.171
  O     -282.102    -289.964     -51.873
  O     -283.771    -291.829     -52.132
  O     -282.858    -291.373     -49.779
  H     -283.314    -292.680     -51.984
  H     -281.557    -288.975     -53.580
  H     -283.226    -288.776     -53.103
  H     -282.693    -290.284     -53.806

 6  7  8  9  10  11  12  13  14  15  25  28  32  33  34  35 0
 6-311+G(2d,p)
 ****
 36  39  40 0
 6-311+G(2d,p)
 ****
 1  2  3  4  5  16  17  18  19  20  21  22  23  24 0
 3-21G
 ****
 26  27  29  30  31  37  38  41  42  43  44  45  46  47  48 0
 3-21G
 ****


