%nproc=1
%NoSave
%Mem=1900MB
#P OB98/GEN NMR

erre ene a

0 1
  C     -141.592      58.331     818.988
  O     -141.773      59.644     819.473
  H     -141.239      58.382     817.946
  H     -142.537      57.774     819.001
  H     -140.842      57.800     819.582
  P     -142.527      59.830     820.878
  C     -140.647      59.993     822.647
  O     -141.539      60.715     821.786
  C     -139.218      60.548     822.554
  O     -138.683      60.325     821.223
  C     -139.139      62.072     822.760
  O     -139.403      62.464     824.095
  C     -137.795      62.403     822.125
  O     -136.682      62.243     823.006
  C     -137.713      61.363     820.987
  N     -137.881      61.975     819.663
  C     -136.720      62.350     819.007
  O     -135.596      62.194     819.476
  N     -136.888      62.937     817.778
  C     -138.082      63.242     817.193
  O     -138.169      63.805     816.114
  C     -139.290      62.841     817.963
  C     -139.139      62.247     819.137
  O     -142.993      58.568     821.541
  O     -143.706      60.850     820.535
  H     -136.863      62.788     823.797
  H     -144.399      60.842     821.239
  H     -136.051      63.203     817.279
  H     -140.257      63.066     817.521
  H     -140.006      61.952     819.716
  H     -136.726      60.860     820.997
  H     -137.770      63.440     821.775
  H     -139.908      62.536     822.140
  H     -138.587      60.012     823.269
  H     -140.648      58.944     822.327
  H     -141.005      60.048     823.676
  P     -140.096      63.867     824.445
  C     -142.471      63.343     825.408
  O     -141.092      63.624     825.693
  O     -140.571      64.696     823.303
  O     -138.873      64.657     825.142
  H     -138.959      65.602     824.921
  H     -143.004      63.206     826.326
  H     -142.539      62.452     824.819
  H     -142.897      64.162     824.867

 6  7  8  9  10  11  12  13  14  15  16  26  31  32  33  34  35 0
 6-311+G(2d,p)
 ****
 36  37 0
 6-311+G(2d,p)
 ****
 1  2  3  4  5  17  18  19  20  21  22  23  24  25 0
 3-21G
 ****
 27  28  29  30  38  39  40  41  42  43  44  45 0
 3-21G
 ****


