%nproc=1
%NoSave
%Mem=1900MB
#P OB98/GEN NMR

erre ene a

0 1
  C      414.206    1529.701    -424.785
  O      413.028    1528.901    -424.881
  P      413.158    1527.299    -424.967
  C      412.210    1526.682    -422.656
  O      413.370    1526.723    -423.483
  C      412.535    1526.198    -421.237
  O      412.892    1524.782    -421.255
  C      413.674    1526.954    -420.551
  O      413.348    1527.052    -419.148
  C      414.844    1526.037    -420.759
  O      415.918    1526.302    -419.863
  C      414.160    1524.668    -420.586
  N      414.954    1523.559    -421.143
  C      416.227    1523.376    -420.622
  O      416.693    1524.194    -419.824
  N      416.956    1522.270    -421.050
  C      416.506    1521.550    -422.033
  N      417.246    1520.482    -422.419
  C      415.222    1521.839    -422.714
  C      414.502    1522.832    -422.211
  O      414.128    1526.809    -425.995
  O      411.661    1526.833    -425.319
  H      415.640    1526.033    -418.941
  H      411.706    1526.063    -425.903
  H      414.916    1521.259    -423.581
  H      413.545    1523.103    -422.636
  H      413.971    1524.463    -419.517
  H      415.242    1526.134    -421.784
  H      413.845    1527.967    -420.943
  H      411.620    1526.283    -420.636
  H      418.126    1520.316    -421.951
  H      411.482    1526.020    -423.113
  H      416.932    1519.827    -423.140
  H      411.746    1527.681    -422.640
  P      412.800    1528.438    -418.584
  C      411.021    1527.600    -416.897
  O      411.277    1528.229    -418.120
  O      412.636    1529.309    -419.930
  O      413.722    1529.173    -417.632
  H      412.713    1530.242    -419.694
  H      409.971    1527.785    -416.622
  H      411.671    1527.964    -416.100
  H      411.146    1526.515    -416.998
  H      413.932    1530.734    -424.738
  H      414.822    1529.534    -425.644
  H      414.747    1529.434    -423.901

 3  4  5  6  7  8  9  10  11  12  13  23  27  28  29  30  32 0
 6-311+G(2d,p)
 ****
 34  35 0
 6-311+G(2d,p)
 ****
 1  2  14  15  16  17  18  19  20  21  22  24  25  26 0
 3-21G
 ****
 31  33  36  37  38  39  40  41  42  43  44  45  46 0
 3-21G
 ****


