%nproc=1
%NoSave
%Mem=1900MB
#P OB98/GEN NMR

erre ene a

0 1
  C      -35.639    -265.400     121.598
  O      -34.707    -266.307     120.992
  P      -35.244    -267.452     120.002
  C      -34.735    -269.317     121.764
  O      -35.679    -268.727     120.874
  C      -35.095    -270.791     122.008
  O      -34.983    -271.542     120.769
  C      -34.172    -271.509     122.981
  O      -34.464    -271.187     124.336
  C      -34.456    -272.973     122.656
  O      -35.644    -273.429     123.324
  C      -34.679    -272.913     121.124
  N      -33.538    -273.422     120.365
  C      -33.427    -274.807     120.282
  O      -34.188    -275.590     120.850
  N      -32.370    -275.274     119.535
  C      -31.402    -274.506     118.943
  O      -30.472    -274.985     118.300
  C      -31.531    -273.062     119.140
  C      -32.572    -272.585     119.833
  O      -33.895    -267.965     119.307
  O      -36.237    -267.006     118.967
  H      -35.428    -273.459     124.277
  H      -34.098    -268.311     118.428
  H      -32.277    -276.279     119.441
  H      -30.773    -272.420     118.707
  H      -32.676    -271.514     119.989
  H      -35.573    -273.492     120.848
  H      -33.641    -273.635     122.948
  H      -33.117    -271.290     122.733
  H      -36.136    -270.849     122.345
  H      -34.758    -268.789     122.726
  H      -33.725    -269.233     121.332
  P      -33.329    -270.332     125.120
  C      -32.571    -272.376     126.555
  O      -32.242    -271.411     125.579
  O      -34.134    -269.947     126.458
  O      -32.814    -269.179     124.334
  H      -34.750    -270.635     126.727
  H      -33.621    -272.678     126.495
  H      -32.355    -271.971     127.560
  H      -31.938    -273.271     126.395
  H      -35.111    -264.710     122.222
  H      -36.340    -265.951     122.190
  H      -36.162    -264.863     120.834

 3  4  5  6  7  8  9  10  11  12  13  23  28  29  30  31  32 0
 6-311+G(2d,p)
 ****
 33  34 0
 6-311+G(2d,p)
 ****
 1  2  14  15  16  17  18  19  20  21  22  24  25  26 0
 3-21G
 ****
 27  35  36  37  38  39  40  41  42  43  44  45 0
 3-21G
 ****


