%nproc=1
%NoSave
%Mem=1900MB
#P OB98/GEN NMR

erre ene a

0 1
  C       75.230     -82.026     319.909
  O       76.116     -82.021     318.807
  H       75.373     -82.952     320.471
  H       74.196     -81.988     319.555
  H       75.431     -81.177     320.569
  P       76.247     -80.658     317.974
  C       74.842     -79.566     316.080
  O       74.872     -80.487     317.161
  C       74.079     -80.175     314.898
  O       74.942     -81.150     314.247
  C       72.785     -80.899     315.298
  O       71.812     -80.687     314.269
  C       73.197     -82.361     315.300
  O       72.115     -83.268     315.128
  C       74.195     -82.381     314.139
  N       75.088     -83.540     314.183
  C       74.869     -84.550     313.247
  O       74.046     -84.499     312.337
  N       75.657     -85.662     313.389
  C       76.597     -85.871     314.360
  O       77.255     -86.901     314.444
  C       76.771     -84.775     315.320
  C       76.018     -83.680     315.195
  O       77.308     -81.033     316.834
  O       76.656     -79.457     318.765
  H       78.217     -80.849     317.141
  H       71.611     -83.282     315.965
  H       75.515     -86.401     312.719
  H       77.497     -84.908     316.110
  H       76.110     -82.861     315.902
  H       73.665     -82.364     313.180
  H       73.694     -82.605     316.246
  H       72.374     -80.584     316.265
  H       73.875     -79.384     314.166
  H       75.867     -79.341     315.762
  H       74.359     -78.638     316.405
  P       70.807     -79.445     314.444
  C       68.863     -78.929     316.129
  O       69.811     -79.866     315.630
  O       69.928     -79.569     313.119
  O       71.514     -78.145     314.619
  H       69.772     -80.492     312.845
  H       68.290     -79.383     316.911
  H       68.210     -78.627     315.337
  H       69.376     -78.073     316.514

 6  7  8  9  10  11  12  13  14  15  16  27  31  32  33  34  35 0
 6-311+G(2d,p)
 ****
 36  37 0
 6-311+G(2d,p)
 ****
 1  2  3  4  5  17  18  19  20  21  22  23  24  25 0
 3-21G
 ****
 26  28  29  30  38  39  40  41  42  43  44  45 0
 3-21G
 ****


