%nproc=1
%NoSave
%Mem=1900MB
#P OB98/GEN NMR

erre ene a

0 1
  C      -82.845     184.314    -265.484
  O      -83.898     184.455    -266.416
  H      -81.923     184.099    -266.030
  H      -83.049     183.482    -264.805
  H      -82.706     185.235    -264.912
  P      -85.332     184.939    -265.891
  C      -86.333     182.726    -266.755
  O      -86.212     183.620    -265.655
  C      -86.214     181.285    -266.270
  O      -84.944     181.091    -265.604
  C      -87.273     180.889    -265.246
  O      -88.528     180.669    -265.858
  C      -86.627     179.659    -264.631
  O      -86.849     178.496    -265.441
  C      -85.131     180.043    -264.626
  N      -84.679     180.474    -263.304
  C      -84.631     179.489    -262.320
  O      -84.930     178.312    -262.522
  N      -84.278     179.913    -261.069
  C      -84.114     181.217    -260.685
  O      -84.045     181.569    -259.514
  C      -84.117     182.206    -261.775
  C      -84.405     181.796    -263.013
  O      -85.990     186.006    -266.700
  O      -85.035     185.444    -264.398
  H      -84.997     186.419    -264.389
  H      -86.374     177.765    -264.995
  H      -84.281     179.211    -260.342
  H      -83.919     183.240    -261.524
  H      -84.448     182.513    -263.829
  H      -84.516     179.193    -264.947
  H      -87.029     179.452    -263.636
  H      -87.355     181.669    -264.480
  H      -86.248     180.619    -267.143
  H      -85.530     182.939    -267.470
  H      -87.300     182.894    -267.245
  P      -89.747     181.676    -265.580
  C      -90.761     179.670    -264.331
  O      -90.619     181.087    -264.371
  O      -90.533     182.066    -266.787
  O      -89.048     182.956    -264.920
  H      -89.353     183.759    -265.389
  H      -91.359     179.395    -263.487
  H      -89.795     179.217    -264.247
  H      -91.236     179.334    -265.229

 6  7  8  9  10  11  12  13  14  15  16  27  31  32  33  34  35 0
 6-311+G(2d,p)
 ****
 36  37 0
 6-311+G(2d,p)
 ****
 1  2  3  4  5  17  18  19  20  21  22  23  24  25 0
 3-21G
 ****
 26  28  29  30  38  39  40  41  42  43  44  45 0
 3-21G
 ****


