%nproc=1
%NoSave
%Mem=1900MB
#P OB98/GEN NMR

erre ene a

0 1
  C     -170.714    -143.924     -10.888
  O     -171.428    -145.140     -10.986
  H     -170.247    -143.871      -9.901
  H     -171.389    -143.071     -11.000
  H     -169.930    -143.880     -11.649
  P     -172.273    -145.424     -12.316
  C     -170.208    -146.703     -13.205
  O     -171.207    -145.726     -13.473
  C     -169.390    -146.995     -14.461
  O     -168.376    -147.981     -14.182
  C     -170.208    -147.557     -15.619
  O     -170.970    -146.538     -16.232
  C     -169.103    -148.153     -16.476
  O     -168.427    -147.133     -17.227
  C     -168.166    -148.745     -15.394
  N     -168.381    -150.168     -15.153
  C     -167.944    -151.035     -16.161
  O     -167.428    -150.587     -17.184
  N     -168.124    -152.385     -15.985
  C     -168.648    -152.833     -14.889
  N     -168.793    -154.180     -14.775
  C     -169.089    -151.956     -13.788
  C     -168.938    -150.648     -13.989
  O     -173.304    -144.399     -12.676
  O     -172.935    -146.858     -12.053
  H     -167.764    -147.595     -17.778
  H     -173.831    -146.758     -11.681
  H     -169.512    -152.374     -12.886
  H     -169.238    -149.933     -13.229
  H     -167.115    -148.602     -15.678
  H     -169.481    -148.880     -17.194
  H     -170.850    -148.374     -15.269
  H     -168.879    -146.070     -14.754
  H     -168.456    -154.744     -15.549
  H     -170.725    -147.610     -12.874
  H     -169.034    -154.646     -13.914
  H     -169.548    -146.369     -12.396
  P     -172.230    -146.878     -17.164
  C     -174.110    -146.291     -15.512
  O     -173.402    -147.333     -16.166
  O     -171.954    -147.824     -18.283
  O     -172.733    -145.441     -17.654
  H     -172.146    -145.096     -18.373
  H     -174.861    -146.714     -14.878
  H     -174.573    -145.661     -16.243
  H     -173.429    -145.713     -14.923

 6  7  8  9  10  11  12  13  14  15  16  26  30  31  32  33  35 0
 6-311+G(2d,p)
 ****
 37  38 0
 6-311+G(2d,p)
 ****
 1  2  3  4  5  17  18  19  20  21  22  23  24  25 0
 3-21G
 ****
 27  28  29  34  36  39  40  41  42  43  44  45  46 0
 3-21G
 ****


