%nproc=1
%NoSave
%Mem=1900MB
#P OB98/GEN NMR

erre ene a

0 1
  C      -24.784    -126.374    -110.620
  O      -25.884    -127.268    -110.638
  P      -25.606    -128.793    -111.058
  C      -24.757    -129.242    -108.637
  O      -24.515    -129.362    -110.029
  C      -24.511    -130.577    -107.931
  O      -23.122    -130.952    -108.124
  C      -24.771    -130.564    -106.421
  O      -25.237    -131.871    -106.066
  C      -23.388    -130.340    -105.837
  O      -23.289    -130.762    -104.481
  C      -22.535    -131.138    -106.817
  N      -17.815    -132.204    -105.347
  C      -19.000    -132.858    -105.062
  N      -18.899    -133.988    -104.331
  N      -20.174    -132.443    -105.460
  C      -20.115    -131.308    -106.195
  C      -19.013    -130.550    -106.511
  C      -17.718    -131.040    -106.098
  O      -16.637    -130.540    -106.400
  N      -19.361    -129.417    -107.197
  C      -20.663    -129.532    -107.366
  N      -21.158    -130.684    -106.817
  O      -24.794    -128.642    -112.426
  O      -26.819    -129.656    -111.202
  H      -22.398    -130.522    -104.157
  H      -25.391    -128.690    -113.197
  H      -16.940    -132.582    -105.029
  H      -21.292    -128.823    -107.878
  H      -22.531    -132.212    -106.594
  H      -23.139    -129.273    -105.876
  H      -18.025    -134.382    -104.018
  H      -25.491    -129.804    -106.107
  H      -19.748    -134.505    -104.136
  H      -25.125    -131.343    -108.419
  H      -25.802    -128.955    -108.483
  H      -24.118    -128.457    -108.219
  P      -26.173    -132.008    -104.772
  C      -28.139    -132.824    -106.247
  O      -27.692    -131.913    -105.263
  O      -25.943    -130.612    -104.018
  O      -25.842    -133.156    -103.876
  H      -26.019    -130.744    -103.055
  H      -29.226    -132.907    -106.183
  H      -27.701    -133.816    -106.107
  H      -27.872    -132.447    -107.238
  H      -25.119    -125.402    -110.324
  H      -24.352    -126.320    -111.598
  H      -24.050    -126.725    -109.925

 3  4  5  6  7  8  9  10  11  12  23  26  30  31 0
 6-311+G(2d,p)
 ****
 33  35  36  37  38 0
 6-311+G(2d,p)
 ****
 1  2  13  14  15  16  17  18  19  20  21  22  24  25 0
 3-21G
 ****
 27  28  29  32  34  39  40  41  42  43  44  45  46  47  48  49 0
 3-21G
 ****


