%nproc=1
%NoSave
%Mem=1900MB
#P OB98/GEN NMR

erre ene a

0 1
  C      -84.128     285.035     -77.672
  O      -85.486     284.970     -78.060
  H      -83.941     284.261     -76.924
  H      -83.900     286.009     -77.230
  H      -83.477     284.856     -78.532
  P      -86.037     286.060     -79.096
  C      -87.560     288.146     -78.946
  O      -86.897     287.105     -78.237
  C      -89.035     288.207     -78.555
  O      -89.746     287.081     -79.110
  C      -89.284     288.156     -77.053
  O      -88.973     289.396     -76.454
  C      -90.754     287.768     -77.027
  O      -91.591     288.902     -77.298
  C      -90.818     286.750     -78.193
  N      -90.717     285.361     -77.760
  C      -91.895     284.782     -77.272
  O      -92.931     285.443     -77.211
  N      -91.854     283.476     -76.849
  C      -90.757     282.795     -76.946
  N      -90.786     281.506     -76.513
  C      -89.505     283.357     -77.487
  C      -89.552     284.633     -77.860
  O      -86.741     285.526     -80.305
  O      -84.737     286.904     -79.496
  H      -92.483     288.544     -77.481
  H      -84.336     286.548     -80.311
  H      -88.614     282.749     -77.558
  H      -88.673     285.123     -78.270
  H      -91.757     286.866     -78.750
  H      -91.060     287.367     -76.060
  H      -88.705     287.344     -76.599
  H      -89.464     289.117     -78.995
  H      -91.674     281.159     -76.169
  H      -87.462     287.921     -80.013
  H      -90.047     280.841     -76.690
  H      -87.079     289.111     -78.752
  P      -88.365     289.486     -74.971
  C      -89.329     289.895     -72.624
  O      -89.625     289.681     -73.995
  O      -87.270     290.481     -74.793
  O      -87.918     287.981     -74.658
  H      -87.067     287.772     -75.121
  H      -90.241     290.010     -72.076
  H      -88.736     290.780     -72.521
  H      -88.786     289.056     -72.241

 6  7  8  9  10  11  12  13  14  15  16  26  30  31  32  33  35 0
 6-311+G(2d,p)
 ****
 37  38 0
 6-311+G(2d,p)
 ****
 1  2  3  4  5  17  18  19  20  21  22  23  24  25 0
 3-21G
 ****
 27  28  29  34  36  39  40  41  42  43  44  45  46 0
 3-21G
 ****


