%nproc=1
%NoSave
%Mem=1900MB
#P OB98/GEN NMR

erre ene a

0 1
  C      -23.028    -123.282    -156.815
  O      -24.072    -123.856    -157.574
  H      -23.415    -122.392    -156.310
  H      -22.206    -122.981    -157.469
  H      -22.665    -123.983    -156.060
  P      -23.820    -125.270    -158.286
  C      -26.053    -126.237    -157.438
  O      -24.636    -126.366    -157.448
  C      -26.548    -126.059    -156.005
  O      -25.936    -124.892    -155.412
  C      -28.049    -125.829    -155.896
  O      -28.775    -127.028    -156.088
  C      -28.147    -125.232    -154.504
  O      -28.139    -126.254    -153.500
  C      -26.860    -124.381    -154.425
  N      -27.128    -122.959    -154.639
  C      -27.604    -122.253    -153.539
  O      -27.790    -122.758    -152.434
  N      -27.923    -120.941    -153.768
  C      -27.945    -120.330    -154.989
  O      -28.470    -119.238    -155.185
  C      -27.375    -121.105    -156.100
  C      -27.010    -122.369    -155.881
  O      -22.393    -125.612    -158.557
  O      -24.662    -125.161    -159.644
  H      -24.053    -124.977    -160.385
  H      -27.309    -126.755    -153.635
  H      -28.308    -120.432    -152.985
  H      -27.308    -120.629    -157.072
  H      -26.617    -122.973    -156.693
  H      -26.379    -124.503    -153.447
  H      -29.062    -124.651    -154.380
  H      -28.362    -125.076    -156.628
  H      -26.243    -126.937    -155.422
  H      -26.491    -127.145    -157.865
  H      -26.337    -125.379    -158.057
  P      -30.059    -127.050    -157.045
  C      -29.358    -129.064    -158.479
  O      -29.622    -127.665    -158.460
  O      -30.814    -125.766    -157.128
  O      -30.980    -128.208    -156.428
  H      -31.887    -127.860    -156.313
  H      -29.077    -129.361    -159.468
  H      -30.237    -129.597    -158.183
  H      -28.561    -129.286    -157.800

 6  7  8  9  10  11  12  13  14  15  16  27  31  32  33  34  35 0
 6-311+G(2d,p)
 ****
 36  37 0
 6-311+G(2d,p)
 ****
 1  2  3  4  5  17  18  19  20  21  22  23  24  25 0
 3-21G
 ****
 26  28  29  30  38  39  40  41  42  43  44  45 0
 3-21G
 ****


