%nproc=1
%NoSave
%Mem=1900MB
#P OB98/GEN NMR

erre ene a

0 1
  C      483.804     625.226     -44.993
  O      484.013     625.945     -46.194
  H      484.481     625.592     -44.217
  H      482.772     625.380     -44.661
  H      483.963     624.154     -45.156
  P      485.481     625.872     -46.837
  C      486.534     626.439     -49.140
  O      485.337     626.284     -48.385
  C      486.217     627.108     -50.476
  O      485.403     626.201     -51.264
  C      485.467     628.451     -50.367
  O      486.223     629.496     -50.996
  C      484.184     628.233     -51.157
  O      483.807     629.363     -51.942
  C      484.501     627.016     -52.030
  N      481.156     626.068     -55.751
  C      482.434     626.524     -55.788
  N      483.306     626.649     -54.771
  C      482.750     626.238     -53.628
  C      481.478     625.733     -53.434
  C      480.646     625.675     -54.556
  N      479.322     625.274     -54.513
  N      481.264     625.425     -52.103
  C      482.372     625.768     -51.496
  N      483.298     626.281     -52.363
  O      485.783     624.299     -46.887
  O      486.531     626.616     -46.080
  H      482.897     629.188     -52.250
  H      486.673     624.131     -46.526
  H      482.802     626.819     -56.762
  H      482.561     625.712     -50.418
  H      485.006     627.305     -52.964
  H      483.369     628.013     -50.440
  H      485.253     628.725     -49.323
  H      487.157     627.246     -51.024
  H      486.979     625.451     -49.332
  H      478.773     625.377     -55.358
  H      478.915     625.088     -53.621
  H      487.244     627.034     -48.565
  P      486.548     630.795     -50.112
  C      488.484     632.528     -50.072
  O      487.732     631.589     -50.830
  O      487.251     630.179     -48.804
  O      485.342     631.605     -49.755
  H      487.121     630.761     -48.044
  H      489.233     632.970     -50.695
  H      488.952     632.029     -49.250
  H      487.832     633.291     -49.702

 6  7  8  9  10  11  12  13  14  15  25  28  32  33  34  35 0
 6-311+G(2d,p)
 ****
 36  39  40 0
 6-311+G(2d,p)
 ****
 1  2  3  4  5  16  17  18  19  20  21  22  23  24 0
 3-21G
 ****
 26  27  29  30  31  37  38  41  42  43  44  45  46  47  48 0
 3-21G
 ****


