%nproc=1
%NoSave
%Mem=1900MB
#P OB98/GEN NMR

erre ene a

0 1
  C      309.372     578.929     397.836
  O      310.501     578.710     398.655
  H      308.524     578.390     398.264
  H      309.562     578.554     396.832
  H      309.130     579.994     397.799
  P      311.819     579.567     398.313
  C      313.506     579.516     396.297
  O      312.445     578.884     397.001
  C      313.422     579.179     394.806
  O      313.579     577.754     394.637
  C      312.099     579.587     394.140
  O      312.374     580.044     392.820
  C      311.312     578.286     394.098
  O      310.317     578.304     393.077
  C      312.439     577.262     393.904
  N      312.054     575.923     394.361
  C      311.232     575.180     393.499
  O      310.849     575.661     392.434
  N      310.824     573.925     393.893
  C      311.158     573.476     395.070
  N      310.703     572.240     395.401
  C      311.973     574.252     396.022
  C      312.394     575.444     395.605
  O      312.811     579.119     399.488
  O      311.588     581.036     398.220
  H      310.726     578.007     392.241
  H      312.778     578.166     399.683
  H      312.196     573.845     397.002
  H      313.002     576.072     396.246
  H      312.724     577.193     392.844
  H      310.804     578.120     395.055
  H      311.562     580.357     394.702
  H      314.280     579.647     394.295
  H      310.123     571.760     394.732
  H      314.472     579.193     396.693
  H      310.852     571.821     396.308
  H      313.415     580.596     396.453
  P      311.961     581.539     392.415
  C      309.844     582.836     391.714
  O      310.398     581.564     392.041
  O      312.863     582.221     391.424
  O      311.987     582.321     393.818
  H      312.358     583.219     393.664
  H      308.805     582.724     391.485
  H      310.355     583.240     390.865
  H      309.957     583.499     392.546

 6  7  8  9  10  11  12  13  14  15  16  26  30  31  32  33  35 0
 6-311+G(2d,p)
 ****
 37  38 0
 6-311+G(2d,p)
 ****
 1  2  3  4  5  17  18  19  20  21  22  23  24  25 0
 3-21G
 ****
 27  28  29  34  36  39  40  41  42  43  44  45  46 0
 3-21G
 ****


