%nproc=1
%NoSave
%Mem=1900MB
#P OB98/GEN NMR

erre ene a

0 1
  C      103.228     274.758    -153.582
  O      102.169     273.915    -153.988
  H      102.913     275.803    -153.653
  H      103.475     274.536    -152.540
  H      104.115     274.593    -154.198
  P      101.839     273.851    -155.556
  C      100.585     275.994    -156.312
  O      101.840     275.370    -156.083
  C      100.566     276.668    -157.684
  O      101.185     277.980    -157.564
  C      101.315     275.892    -158.779
  O      100.583     276.014    -160.002
  C      102.624     276.653    -158.910
  O      103.222     276.503    -160.194
  C      102.172     278.078    -158.607
  N      104.885     282.202    -159.828
  C      103.676     281.764    -160.238
  N      102.997     280.677    -159.820
  C      103.662     280.053    -158.830
  C      104.898     280.383    -158.304
  C      105.531     281.509    -158.859
  N      106.791     281.925    -158.498
  N      105.272     279.466    -157.339
  C      104.291     278.585    -157.306
  N      103.297     278.897    -158.193
  O      100.288     273.451    -155.566
  O      102.667     272.897    -156.350
  H      104.014     277.074    -160.243
  H      100.200     272.480    -155.543
  H      103.192     282.357    -161.011
  H      104.267     277.696    -156.691
  H      101.709     278.568    -159.474
  H      103.333     276.295    -158.155
  H      101.472     274.833    -158.545
  H       99.521     276.833    -157.974
  H      100.418     276.754    -155.539
  H      107.207     282.678    -159.025
  H      107.327     281.357    -157.855
  H       99.790     275.243    -156.245
  P      100.219     274.660    -160.781
  C      101.317     275.033    -163.114
  O      101.368     274.364    -161.857
  O       98.966     275.082    -161.683
  O       99.887     273.515    -159.878
  H       98.358     274.329    -161.791
  H      102.149     274.729    -163.714
  H      101.358     276.091    -162.957
  H      100.405     274.782    -163.615

 6  7  8  9  10  11  12  13  14  15  25  28  32  33  34  35 0
 6-311+G(2d,p)
 ****
 36  39  40 0
 6-311+G(2d,p)
 ****
 1  2  3  4  5  16  17  18  19  20  21  22  23  24 0
 3-21G
 ****
 26  27  29  30  31  37  38  41  42  43  44  45  46  47 0
 3-21G
 ****
 48 0
 3-21G
 ****


