%nproc=1
%NoSave
%Mem=1900MB
#P OB98/GEN NMR

erre ene a

0 1
  C       97.822     -41.716     375.960
  O       98.903     -42.424     375.353
  P       99.993     -43.125     376.297
  C      101.337     -40.938     376.520
  O      101.372     -42.314     376.159
  C      102.694     -40.279     376.274
  O      103.714     -40.818     377.139
  C      103.218     -40.487     374.862
  O      102.518     -39.668     373.938
  C      104.693     -40.155     375.037
  O      104.910     -38.733     374.994
  C      104.980     -40.694     376.455
  N      105.716     -41.946     376.458
  C      107.087     -41.849     376.713
  O      107.613     -40.750     376.882
  N      107.827     -43.007     376.755
  C      107.253     -44.152     376.552
  N      108.039     -45.262     376.609
  C      105.812     -44.294     376.268
  C      105.112     -43.162     376.226
  O      100.107     -44.610     376.162
  O       99.498     -42.717     377.770
  H      104.187     -38.337     375.520
  H       99.756     -43.422     378.394
  H      105.379     -45.271     376.115
  H      104.048     -43.173     376.022
  H      105.565     -39.958     377.026
  H      105.306     -40.598     374.245
  H      103.110     -41.541     374.579
  H      102.596     -39.202     376.480
  H      109.022     -45.137     376.795
  H      101.063     -40.844     377.574
  H      107.673     -46.200     376.515
  H      100.548     -40.441     375.945
  P      101.349     -40.350     373.080
  C      103.026     -41.207     371.299
  O      101.854     -40.462     371.564
  O      100.237     -39.197     373.015
  O      100.789     -41.605     373.667
  H       99.349     -39.599     373.014
  H      103.054     -41.447     370.232
  H      103.046     -42.139     371.870
  H      103.907     -40.608     371.547
  H       97.189     -41.311     375.199
  H       98.210     -40.921     376.562
  H       97.257     -42.386     376.574

 3  4  5  6  7  8  9  10  11  12  13  23  27  28  29  30  32 0
 6-311+G(2d,p)
 ****
 34  35 0
 6-311+G(2d,p)
 ****
 1  2  14  15  16  17  18  19  20  21  22  24  25  26 0
 3-21G
 ****
 31  33  36  37  38  39  40  41  42  43  44  45  46 0
 3-21G
 ****


