%nproc=1
%NoSave
%Mem=1900MB
#P OB98/GEN NMR

erre ene a

0 1
  C     -108.267     248.656       5.301
  O     -109.365     247.914       5.812
  P     -109.360     247.549       7.376
  C     -108.648     245.075       6.962
  O     -108.339     246.324       7.560
  C     -107.514     244.075       7.196
  O     -107.879     242.809       6.583
  C     -106.160     244.488       6.610
  O     -105.147     243.955       7.474
  C     -106.124     243.760       5.276
  O     -104.802     243.597       4.775
  C     -106.833     242.460       5.648
  N     -107.101     238.146       3.020
  C     -106.318     238.469       4.114
  N     -105.543     237.478       4.608
  N     -106.298     239.652       4.671
  C     -107.137     240.534       4.076
  C     -107.932     240.346       2.968
  C     -107.973     239.024       2.386
  O     -108.712     238.670       1.471
  N     -108.574     241.501       2.607
  C     -108.232     242.363       3.544
  N     -107.401     241.812       4.482
  O     -110.797     246.878       7.587
  O     -109.116     248.693       8.310
  H     -104.869     243.222       3.870
  H     -111.451     247.536       7.891
  H     -107.087     237.213       2.645
  H     -108.555     243.391       3.598
  H     -106.164     241.741       6.136
  H     -106.703     244.327       4.535
  H     -105.530     236.537       4.248
  H     -106.038     245.571       6.505
  H     -104.986     237.680       5.428
  H     -107.425     243.898       8.276
  H     -108.769     245.215       5.886
  H     -109.590     244.696       7.371
  P     -104.525     244.926       8.590
  C     -102.424     245.703       7.289
  O     -103.681     246.055       7.835
  O     -103.395     244.012       9.267
  O     -105.499     245.406       9.615
  H     -103.303     244.246      10.208
  H     -102.170     246.414       6.499
  H     -102.436     244.694       6.863
  H     -101.659     245.758       8.071
  H     -108.406     248.823       4.253
  H     -107.362     248.107       5.457
  H     -108.206     249.597       5.807

 3  4  5  6  7  8  9  10  11  12  23  26  30  31 0
 6-311+G(2d,p)
 ****
 33  35  36  37  38 0
 6-311+G(2d,p)
 ****
 1  2  13  14  15  16  17  18  19  20  21  22  24  25 0
 3-21G
 ****
 27  28  29  32  34  39  40  41  42  43  44  45  46  47  48  49 0
 3-21G
 ****


