%nproc=1
%NoSave
%Mem=1900MB
#P OB98/GEN NMR

erre ene a

0 1
  C       59.028     150.570     201.616
  O       59.509     149.305     202.105
  P       60.905     149.129     202.874
  C       62.262     147.139     203.825
  O       61.269     147.565     202.896
  C       62.424     145.608     203.783
  O       61.187     144.968     204.197
  C       62.710     145.018     202.405
  O       64.039     145.267     201.983
  C       62.390     143.548     202.651
  O       63.506     142.850     203.222
  C       61.237     143.614     203.673
  N       59.955     143.225     203.110
  C       59.882     141.940     202.556
  O       60.886     141.237     202.485
  N       58.661     141.500     202.086
  C       57.644     142.307     202.067
  N       56.466     141.811     201.606
  C       57.717     143.712     202.524
  C       58.889     144.095     203.033
  O       60.944     149.771     204.227
  O       62.011     149.764     201.903
  H       62.768     150.074     202.430
  H       63.689     143.267     204.092
  H       56.858     144.359     202.459
  H       59.024     145.103     203.401
  H       61.464     142.980     204.539
  H       62.126     143.025     201.719
  H       62.000     145.434     201.683
  H       63.214     145.329     204.493
  H       56.447     140.838     201.315
  H       61.949     147.435     204.830
  H       55.610     142.346     201.575
  H       63.213     147.636     203.590
  P       64.222     146.093     200.622
  C       65.774     148.064     199.943
  O       65.610     146.887     200.713
  O       63.111     147.247     200.723
  O       64.048     145.286     199.374
  H       62.703     147.396     199.849
  H       66.496     148.714     200.444
  H       64.830     148.604     199.814
  H       66.171     147.791     198.957
  H       58.079     150.431     201.141
  H       59.726     150.968     200.909
  H       58.921     151.251     202.434

 3  4  5  6  7  8  9  10  11  12  13  24  27  28  29  30  32 0
 6-311+G(2d,p)
 ****
 34  35 0
 6-311+G(2d,p)
 ****
 1  2  14  15  16  17  18  19  20  21  22  23  25  26 0
 3-21G
 ****
 31  33  36  37  38  39  40  41  42  43  44  45  46 0
 3-21G
 ****


