%nproc=1
%NoSave
%Mem=1900MB
#P OB98/GEN NMR

erre ene a

0 1
  C      517.233     300.707     240.462
  O      516.537     301.806     241.031
  P      515.602     301.524     242.297
  C      513.706     302.761     241.026
  O      514.411     302.602     242.245
  C      513.250     304.213     240.844
  O      512.116     304.458     241.728
  C      514.323     305.264     241.167
  O      514.113     306.353     240.269
  C      513.964     305.656     242.592
  O      514.540     306.870     243.020
  C      512.439     305.625     242.502
  N      511.777     308.082     246.945
  C      512.416     308.434     245.801
  N      512.552     307.726     244.661
  C      511.912     306.547     244.766
  C      511.247     306.039     245.862
  C      511.180     306.867     247.001
  N      510.537     306.505     248.154
  N      510.746     304.774     245.595
  C      511.120     304.533     244.358
  N      511.812     305.573     243.803
  O      516.490     302.019     243.532
  O      515.162     300.094     242.454
  H      515.513     306.837     242.953
  H      516.384     301.427     244.298
  H      512.898     309.411     245.821
  H      510.920     303.609     243.831
  H      512.040     306.505     241.979
  H      514.321     304.874     243.274
  H      515.346     304.889     241.052
  H      512.891     304.340     239.812
  H      512.820     302.120     241.035
  H      510.725     307.067     248.977
  H      510.275     305.521     248.251
  H      514.335     302.447     240.189
  P      515.336     306.856     239.355
  C      515.625     308.988     240.770
  O      515.287     308.459     239.502
  O      514.739     306.649     237.890
  O      516.644     306.188     239.605
  H      513.853     307.055     237.799
  H      515.652     310.085     240.707
  H      516.619     308.634     241.079
  H      514.877     308.702     241.511
  H      517.814     301.045     239.629
  H      516.529     299.972     240.131
  H      517.880     300.276     241.197

 3  4  5  6  7  8  9  10  11  12  22  25  29  30  31  32 0
 6-311+G(2d,p)
 ****
 33  36  37 0
 6-311+G(2d,p)
 ****
 1  2  13  14  15  16  17  18  19  20  21  23  24  26 0
 3-21G
 ****
 27  28  34  35  38  39  40  41  42  43  44  45  46  47  48 0
 3-21G
 ****


