%nproc=1
%NoSave
%Mem=1900MB
#P OB98/GEN NMR

erre ene a

0 1
  C      418.765     302.243     353.347
  O      417.411     302.625     353.058
  P      416.704     302.276     351.664
  C      414.782     303.878     352.288
  O      415.137     302.588     351.787
  C      413.378     304.297     351.835
  O      413.317     304.406     350.401
  C      412.269     303.325     352.228
  O      411.916     303.497     353.586
  C      411.180     303.696     351.229
  O      410.467     304.866     351.670
  C      412.003     304.020     349.966
  N      409.817     301.769     345.924
  C      409.514     302.898     346.600
  N      410.142     303.431     347.668
  C      411.199     302.678     348.017
  C      411.629     301.495     347.431
  C      410.887     301.039     346.329
  N      411.187     299.880     345.651
  N      412.738     300.996     348.080
  C      412.992     301.872     349.035
  N      412.080     302.904     349.043
  O      417.017     300.913     351.143
  O      417.223     303.402     350.646
  H      409.964     305.205     350.910
  H      417.224     303.052     349.736
  H      408.656     303.450     346.229
  H      413.802     301.800     349.745
  H      411.583     304.872     349.419
  H      410.449     302.898     351.080
  H      412.591     302.295     352.044
  H      413.176     305.295     352.249
  H      415.519     304.603     351.926
  H      410.580     299.601     344.897
  H      411.948     299.305     345.975
  H      414.828     303.847     353.383
  P      412.051     302.275     354.614
  C      410.227     303.192     356.171
  O      411.591     302.807     356.052
  O      413.365     301.561     354.595
  O      410.851     301.297     354.202
  H      411.107     300.373     354.404
  H      410.093     304.194     355.751
  H      409.965     303.208     357.233
  H      409.576     302.482     355.648
  H      419.028     302.577     354.329
  H      419.422     302.689     352.630
  H      418.853     301.178     353.297

 3  4  5  6  7  8  9  10  11  12  22  25  29  30  31  32 0
 6-311+G(2d,p)
 ****
 33  36  37 0
 6-311+G(2d,p)
 ****
 1  2  13  14  15  16  17  18  19  20  21  23  24  26 0
 3-21G
 ****
 27  28  34  35  38  39  40  41  42  43  44  45  46  47  48 0
 3-21G
 ****


