%nproc=1
%NoSave
%Mem=1900MB
#P OB98/GEN NMR

erre ene a

0 1
  C     -519.247    1246.020      26.182
  O     -518.600    1246.985      25.344
  P     -519.072    1247.114      23.813
  C     -518.937    1249.660      23.418
  O     -519.790    1248.533      23.620
  C     -519.224    1250.735      24.470
  O     -518.950    1250.269      25.816
  C     -518.347    1251.980      24.300
  O     -518.774    1252.753      23.197
  C     -518.484    1252.639      25.653
  O     -519.706    1253.430      25.717
  C     -518.592    1251.440      26.604
  N     -517.375    1251.182      27.351
  C     -516.963    1252.210      28.231
  O     -517.610    1253.247      28.305
  N     -515.836    1252.023      28.981
  C     -515.148    1250.926      28.864
  N     -514.036    1250.780      29.628
  C     -515.545    1249.816      27.940
  C     -516.647    1250.038      27.203
  O     -519.821    1245.938      23.269
  O     -517.674    1247.319      23.028
  H     -519.565    1254.209      25.163
  H     -517.766    1246.941      22.148
  H     -514.943    1248.914      27.889
  H     -516.989    1249.287      26.509
  H     -519.395    1251.588      27.329
  H     -517.670    1253.323      25.861
  H     -517.284    1251.664      24.154
  H     -520.280    1251.028      24.382
  H     -513.805    1251.551      30.237
  H     -519.090    1250.044      22.410
  H     -513.471    1249.928      29.653
  H     -517.887    1249.320      23.480
  P     -518.349    1252.258      21.715
  C     -520.707    1251.899      20.694
  O     -519.474    1251.318      21.156
  O     -517.122    1251.242      22.008
  O     -517.890    1253.353      20.804
  H     -516.474    1251.300      21.299
  H     -521.226    1251.180      20.075
  H     -520.497    1252.819      20.117
  H     -521.322    1252.156      21.552
  H     -518.822    1246.058      27.163
  H     -519.109    1245.042      25.771
  H     -520.293    1246.240      26.237

 3  4  5  6  7  8  9  10  11  12  13  23  27  28  29  30  32 0
 6-311+G(2d,p)
 ****
 34  35 0
 6-311+G(2d,p)
 ****
 1  2  14  15  16  17  18  19  20  21  22  24  25  26 0
 3-21G
 ****
 31  33  36  37  38  39  40  41  42  43  44  45  46 0
 3-21G
 ****


