%nproc=1
%NoSave
%Mem=1900MB
#P OB98/GEN NMR

erre ene a

0 1
  C       98.647     258.010    -287.876
  O       99.729     257.547    -287.055
  P      100.546     258.594    -286.163
  C      102.462     260.316    -286.437
  O      101.626     259.348    -287.071
  C      103.420     260.925    -287.460
  O      104.383     259.956    -287.954
  C      102.704     261.441    -288.706
  O      101.878     262.578    -288.559
  C      103.842     261.531    -289.709
  O      104.565     262.754    -289.577
  C      104.724     260.327    -289.305
  N      104.587     259.188    -290.213
  C      105.111     259.361    -291.491
  O      105.628     260.409    -291.870
  N      104.997     258.283    -292.337
  C      104.383     257.097    -292.037
  O      104.290     256.175    -292.844
  C      103.818     256.985    -290.686
  C      103.948     258.013    -289.845
  O      101.064     258.063    -284.863
  O       99.454     259.751    -285.894
  H      103.975     263.473    -289.861
  H       99.546     260.031    -284.960
  H      105.383     258.384    -293.259
  H      103.324     256.064    -290.417
  H      103.546     257.957    -288.837
  H      105.782     260.617    -289.293
  H      103.478     261.494    -290.745
  H      102.040     260.634    -289.060
  H      103.987     261.733    -286.972
  H      103.029     259.832    -285.631
  H      101.835     261.075    -285.962
  P      100.290     262.480    -288.368
  C       98.247     261.732    -289.791
  O       99.649     261.885    -289.715
  O       99.601     263.654    -287.748
  O      100.157     261.231    -287.364
  H       99.384     261.375    -286.792
  H       97.995     261.303    -290.764
  H       97.754     262.708    -289.693
  H       97.894     261.056    -289.005
  H       98.217     257.182    -288.400
  H       99.015     258.725    -288.581
  H       97.902     258.468    -287.259

 3  4  5  6  7  8  9  10  11  12  13  23  28  29  30  31  32 0
 6-311+G(2d,p)
 ****
 33  34 0
 6-311+G(2d,p)
 ****
 1  2  14  15  16  17  18  19  20  21  22  24  25  26  27 0
 3-21G
 ****
 35  36  37  38  39  40  41  42  43  44  45 0
 3-21G
 ****


