%nproc=1
%NoSave
%Mem=1900MB
#P OB98/GEN NMR

erre ene a

0 1
  C      -27.958     153.832     102.398
  O      -28.291     154.598     101.252
  P      -29.612     155.506     101.231
  C      -29.170     156.588     103.521
  O      -30.027     155.742     102.764
  C      -29.965     157.354     104.576
  O      -30.919     158.214     103.909
  C      -30.746     156.449     105.522
  O      -30.743     157.033     106.828
  C      -32.167     156.484     104.988
  O      -33.121     156.208     106.026
  C      -32.235     157.899     104.404
  N      -36.189     160.534     102.463
  C      -35.442     160.724     103.572
  N      -34.423     159.970     104.041
  C      -34.164     158.955     103.202
  C      -34.837     158.637     102.032
  C      -35.900     159.480     101.666
  N      -36.653     159.291     100.528
  N      -34.303     157.501     101.454
  C      -33.315     157.156     102.250
  N      -33.184     158.008     103.314
  O      -30.710     155.002     100.362
  O      -29.101     156.947     100.769
  H      -32.897     155.329     106.396
  H      -29.756     157.367     100.180
  H      -35.698     161.596     104.167
  H      -32.676     156.297     102.110
  H      -32.497     158.639     105.169
  H      -32.286     155.721     104.210
  H      -30.344     155.431     105.567
  H      -29.276     157.998     105.135
  H      -28.699     157.302     102.838
  H      -37.311     160.013     100.284
  H      -36.329     158.615      99.850
  H      -28.384     155.986     103.989
  P      -31.256     156.083     108.024
  C      -28.772     155.311     108.119
  O      -30.133     154.949     108.151
  O      -32.664     155.631     107.815
  O      -31.039     157.036     109.291
  H      -30.343     157.708     109.122
  H      -28.166     154.404     108.180
  H      -28.531     155.948     108.976
  H      -28.536     155.834     107.188
  H      -27.048     153.298     102.218
  H      -28.745     153.137     102.603
  H      -27.830     154.483     103.237

 3  4  5  6  7  8  9  10  11  12  22  25  29  30  31  32 0
 6-311+G(2d,p)
 ****
 33  36  37 0
 6-311+G(2d,p)
 ****
 1  2  13  14  15  16  17  18  19  20  21  23  24  26 0
 3-21G
 ****
 27  28  34  35  38  39  40  41  42  43  44  45  46  47  48 0
 3-21G
 ****


