%nproc=1
%NoSave
%Mem=1900MB
#P OB98/GEN NMR

erre ene a

0 1
  C      -21.876      34.975      30.365
  O      -20.754      34.737      29.535
  H      -21.527      35.154      31.386
  H      -22.544      34.109      30.376
  H      -22.422      35.857      30.020
  P      -21.015      34.294      28.018
  C      -18.635      34.958      27.252
  O      -19.577      33.906      27.430
  C      -17.242      34.381      27.022
  O      -16.630      34.039      28.281
  C      -17.252      33.099      26.203
  O      -17.461      33.376      24.833
  C      -15.895      32.524      26.555
  O      -14.851      33.152      25.801
  C      -15.787      32.885      28.055
  N      -16.165      31.780      28.930
  C      -15.565      30.546      28.655
  O      -14.766      30.435      27.727
  N      -15.908      29.467      29.430
  C      -16.755      29.607      30.400
  N      -17.051      28.498      31.129
  C      -17.399      30.892      30.731
  C      -17.065      31.925      29.961
  O      -21.796      35.243      27.162
  O      -21.743      32.875      28.160
  H      -14.015      32.890      26.235
  H      -22.710      32.991      28.211
  H      -18.096      30.963      31.553
  H      -17.491      32.907      30.138
  H      -14.763      33.186      28.306
  H      -15.850      31.454      26.357
  H      -18.019      32.415      26.581
  H      -16.623      35.150      26.544
  H      -16.593      27.634      30.859
  H      -18.649      35.562      28.164
  H      -17.625      28.505      31.957
  H      -18.923      35.596      26.409
  P      -17.718      32.186      23.790
  C      -19.418      33.805      22.722
  O      -18.352      32.888      22.491
  O      -18.480      31.022      24.325
  O      -16.239      31.807      23.303
  H      -15.748      31.306      23.998
  H      -19.754      34.204      21.788
  H      -19.074      34.602      23.347
  H      -20.227      33.297      23.205

 6  7  8  9  10  11  12  13  14  15  16  26  30  31  32  33  35 0
 6-311+G(2d,p)
 ****
 37  38 0
 6-311+G(2d,p)
 ****
 1  2  3  4  5  17  18  19  20  21  22  23  24  25 0
 3-21G
 ****
 27  28  29  34  36  39  40  41  42  43  44  45  46 0
 3-21G
 ****


