%nproc=1
%NoSave
%Mem=1900MB
#P OB98/GEN NMR

erre ene a

0 1
  C     -348.062     500.249      44.690
  O     -348.641     498.972      44.897
  P     -348.764     498.359      46.373
  C     -351.087     499.085      47.205
  O     -349.692     499.367      47.210
  C     -351.793     499.836      48.331
  O     -351.180     499.479      49.591
  C     -351.707     501.352      48.193
  O     -352.929     501.933      48.659
  C     -350.595     501.754      49.150
  O     -350.756     503.107      49.601
  C     -350.738     500.685      50.239
  N     -347.309     502.413      53.648
  C     -348.482     502.925      53.215
  N     -349.328     502.425      52.290
  C     -348.887     501.243      51.835
  C     -347.711     500.594      52.185
  C     -346.897     501.230      53.137
  N     -345.707     500.698      53.586
  N     -347.581     499.409      51.484
  C     -348.663     499.341      50.738
  N     -349.489     500.417      50.925
  O     -347.470     498.022      47.027
  O     -349.694     497.072      46.198
  H     -351.538     503.120      50.195
  H     -349.385     496.350      46.777
  H     -348.780     503.866      53.672
  H     -348.893     498.542      50.049
  H     -351.490     500.966      50.984
  H     -349.627     501.683      48.638
  H     -351.504     501.679      47.166
  H     -352.839     499.511      48.366
  H     -351.219     498.006      47.354
  H     -345.254     501.160      54.354
  H     -345.488     499.740      53.337
  H     -351.509     499.352      46.232
  P     -353.353     503.324      47.969
  C     -355.327     502.408      46.536
  O     -354.005     502.903      46.568
  O     -352.224     504.300      47.930
  O     -354.584     503.764      48.893
  H     -355.004     502.989      49.325
  H     -355.578     502.142      45.509
  H     -356.024     503.178      46.877
  H     -355.418     501.518      47.168
  H     -348.071     500.480      43.645
  H     -347.053     500.245      45.046
  H     -348.625     500.987      45.223

 3  4  5  6  7  8  9  10  11  12  22  25  29  30  31  32 0
 6-311+G(2d,p)
 ****
 33  36  37 0
 6-311+G(2d,p)
 ****
 1  2  13  14  15  16  17  18  19  20  21  23  24  26 0
 3-21G
 ****
 27  28  34  35  38  39  40  41  42  43  44  45  46  47  48 0
 3-21G
 ****


