%nproc=1
%NoSave
%Mem=1900MB
#P OB98/GEN NMR

erre ene a

0 1
  C     -547.433      26.095      54.035
  O     -546.122      26.276      53.532
  H     -547.577      26.760      54.889
  H     -547.570      25.058      54.362
  H     -548.172      26.341      53.265
  P     -545.712      25.400      52.250
  C     -544.744      23.360      53.540
  O     -545.784      23.866      52.711
  C     -544.353      21.961      53.076
  O     -545.539      21.182      52.814
  C     -543.554      21.940      51.780
  O     -542.196      22.272      51.974
  C     -543.771      20.506      51.324
  O     -542.855      19.606      51.968
  C     -545.206      20.220      51.787
  N     -547.970      17.495      48.464
  C     -547.184      17.128      49.499
  N     -546.487      17.922      50.344
  C     -546.693      19.216      50.059
  C     -547.476      19.741      49.041
  C     -548.136      18.818      48.216
  N     -548.925      19.192      47.151
  N     -547.407      21.119      49.043
  C     -546.609      21.425      50.045
  N     -546.154      20.305      50.690
  O     -544.142      25.684      52.106
  O     -546.458      25.726      50.999
  H     -541.958      19.891      51.704
  H     -543.998      26.351      51.408
  H     -547.082      16.059      49.656
  H     -546.322      22.428      50.336
  H     -545.310      19.225      52.229
  H     -543.630      20.410      50.248
  H     -544.018      22.615      51.045
  H     -543.790      21.465      53.884
  H     -545.095      23.315      54.575
  H     -543.885      24.037      53.487
  H     -549.312      18.473      46.560
  H     -548.962      20.169      46.890
  P     -541.394      22.909      50.736
  C     -540.436      20.642      49.869
  O     -541.265      21.768      49.612
  O     -539.900      23.070      51.287
  O     -541.952      24.203      50.243
  H     -539.497      23.885      50.910
  H     -540.460      19.982      49.027
  H     -540.793      20.127      50.736
  H     -539.431      20.970      50.037

 6  7  8  9  10  11  12  13  14  15  25  28  32  33  34  35 0
 6-311+G(2d,p)
 ****
 36  37  40 0
 6-311+G(2d,p)
 ****
 1  2  3  4  5  16  17  18  19  20  21  22  23  24 0
 3-21G
 ****
 26  27  29  30  31  38  39 41  42  43  44  45  46  47  48 0
 3-21G
 ****


