%nproc=1
%NoSave
%Mem=1900MB
#P OB98/GEN NMR

erre ene a

0 1
  C       92.461     284.867     533.501
  O       91.585     284.266     532.559
  P       91.047     285.078     531.289
  C       91.277     283.220     529.523
  O       90.378     283.964     530.339
  C       90.798     281.777     529.396
  O       91.134     281.076     530.618
  C       89.291     281.583     529.230
  O       88.823     281.705     527.895
  C       89.133     280.136     529.688
  O       89.534     279.248     528.625
  C       90.129     280.059     530.853
  N       87.832     277.840     534.851
  C       88.385     277.331     533.732
  N       88.958     277.986     532.699
  C       88.968     279.314     532.937
  C       88.445     279.976     534.032
  C       87.856     279.181     535.028
  N       87.303     279.700     536.184
  N       88.625     281.345     533.907
  C       89.257     281.492     532.759
  N       89.492     280.296     532.141
  O       92.056     285.965     530.646
  O       89.773     285.877     531.838
  H       88.826     279.281     527.953
  H       89.538     286.602     531.228
  H       88.364     276.244     533.641
  H       89.556     282.443     532.342
  H       90.643     279.091     530.896
  H       88.102     279.882     529.945
  H       88.729     282.241     529.910
  H       91.342     281.301     528.574
  H       92.266     283.235     530.000
  H       87.021     279.051     536.899
  H       87.471     280.682     536.391
  H       91.366     283.692     528.539
  P       87.299     282.195     527.688
  C       87.940     283.779     525.709
  O       87.203     282.668     526.155
  O       86.824     283.184     528.703
  O       86.480     280.817     527.704
  H       86.653     280.220     526.953
  H       87.858     283.837     524.616
  H       88.993     283.688     525.973
  H       87.528     284.706     526.135
  H       92.700     284.160     534.268
  H       91.984     285.719     533.938
  H       93.359     285.175     533.007

 3  4  5  6  7  8  9  10  11  12  22  25  29  30  31  32 0
 6-311+G(2d,p)
 ****
 33  36  37 0
 6-311+G(2d,p)
 ****
 1  2  13  14  15  16  17  18  19  20  21  23  24  26 0
 3-21G
 ****
 27  28  34  35  38  39  40  41  42  43  44  45  46  47  48 0
 3-21G
 ****


