%nproc=1
%NoSave
%Mem=1900MB
#P OB98/GEN NMR

erre ene a

0 1
  C     -891.540    -274.101    -613.089
  O     -891.230    -274.603    -611.806
  P     -891.050    -273.616    -610.561
  C     -893.360    -273.994    -609.506
  O     -892.510    -273.062    -610.168
  C     -894.380    -273.279    -608.630
  O     -893.710    -272.742    -607.449
  C     -895.110    -272.098    -609.305
  O     -896.440    -272.071    -608.762
  C     -894.340    -270.890    -608.803
  O     -895.080    -269.682    -608.902
  C     -894.030    -271.334    -607.373
  N     -892.530    -268.422    -603.454
  C     -893.730    -268.945    -603.773
  N     -894.060    -269.687    -604.852
  C     -892.990    -269.885    -605.636
  C     -891.700    -269.385    -605.457
  C     -891.480    -268.634    -604.288
  N     -890.260    -268.115    -603.927
  N     -890.890    -269.751    -606.507
  C     -891.670    -270.456    -607.307
  N     -892.920    -270.615    -606.797
  O     -890.010    -272.563    -610.730
  O     -890.700    -274.592    -609.338
  H     -896.000    -269.862    -608.635
  H     -889.750    -274.508    -609.114
  H     -894.540    -268.748    -603.076
  H     -891.370    -270.865    -608.266
  H     -894.890    -271.222    -606.706
  H     -893.420    -270.779    -609.391
  H     -895.130    -272.169    -610.396
  H     -895.110    -274.022    -608.270
  H     -892.730    -274.641    -608.891
  H     -890.180    -267.714    -603.002
  H     -889.410    -268.479    -604.378
  H     -893.860    -274.616    -610.247
  P     -897.550    -271.115    -609.430
  C     -899.320    -272.671    -610.419
  O     -898.140    -271.904    -610.677
  O     -897.090    -269.716    -609.712
  O     -898.740    -271.141    -608.365
  H     -899.330    -270.382    -608.522
  H     -899.040    -273.621    -609.955
  H     -899.820    -272.867    -611.366
  H     -900.000    -272.136    -609.756
  H     -891.618    -274.914    -613.781
  H     -890.766    -273.435    -613.408
  H     -892.471    -273.574    -613.051

 3  4  5  6  7  8  9  10  11  12  22  25  29  30  31  32 0
 6-311+G(2d,p)
 ****
 33  36  37 0
 6-311+G(2d,p)
 ****
 1  2  13  14  15  16  17  18  19  20  21  23  24  26 0
 3-21G
 ****
 27  28  34  35  38  39  40  41  42  43  44  45  46  47  48 0
 3-21G
 ****


