%nproc=1
%NoSave
%Mem=1900MB
#P OB98/GEN NMR

erre ene a

0 1
  C      -60.130      35.320     136.203
  O      -61.260      34.965     135.430
  H      -60.413      36.044     136.972
  H      -59.742      34.423     136.690
  H      -59.350      35.741     135.562
  P      -61.965      36.146     134.605
  C      -62.402      34.520     132.631
  O      -62.958      35.434     133.565
  C      -63.511      33.864     131.814
  O      -64.268      32.956     132.640
  C      -64.532      34.835     131.231
  O      -64.051      35.460     130.051
  C      -65.684      33.887     130.930
  O      -65.421      33.176     129.706
  C      -65.624      32.922     132.123
  N      -70.546      33.176     133.494
  C      -69.943      32.712     132.378
  N      -68.626      32.659     132.094
  C      -67.902      33.134     133.120
  C      -68.370      33.619     134.329
  C      -69.764      33.638     134.502
  N      -70.372      34.177     135.624
  N      -67.322      34.033     135.130
  C      -66.244      33.818     134.407
  N      -66.542      33.270     133.189
  O      -60.773      36.695     133.683
  O      -62.567      37.230     135.435
  H      -65.522      33.821     128.980
  H      -60.377      37.479     134.106
  H      -70.608      32.338     131.606
  H      -65.234      34.046     134.719
  H      -65.830      31.887     131.828
  H      -66.642      34.400     130.806
  H      -64.859      35.571     131.975
  H      -63.039      33.272     131.019
  H      -61.843      33.745     133.167
  H      -71.298      34.555     135.441
  H      -69.758      34.737     136.204
  H      -61.717      35.063     131.974
  P      -64.046      37.064     130.005
  C      -62.264      37.071     128.129
  O      -63.568      37.476     128.529
  O      -62.795      37.442     130.930
  O      -65.292      37.720     130.488
  H      -63.084      38.039     131.648
  H      -62.076      37.409     127.131
  H      -62.196      36.004     128.163
  H      -61.540      37.496     128.792

 6  7  8  9  10  11  12  13  14  15  25  28  32  33  34  35 0
 6-311+G(2d,p)
 ****
 36  39  40 0
 6-311+G(2d,p)
 ****
 1  2  3  4  5  16  17  18  19  20  21  22  23  24 0
 3-21G
 ****
 26  27  29  30  31  37  38  41  42  43  44  45  46  47  48 0
 3-21G
 ****


