%nproc=1
%NoSave
%Mem=1900MB
#P OB98/GEN NMR

erre ene a

0 1
  C      141.660      99.257     422.752
  O      141.463      98.614     424.019
  P      142.595      97.613     424.549
  C      143.281      99.004     426.636
  O      142.743      97.794     426.139
  C      143.850      98.799     428.051
  O      142.802      98.744     429.042
  C      144.626      97.501     428.204
  O      145.966      97.623     427.730
  C      144.619      97.342     429.726
  O      145.635      98.183     430.308
  C      143.222      97.865     430.100
  N      141.042      94.543     433.350
  C      142.028      95.446     433.521
  N      142.566      96.272     432.600
  C      141.964      96.121     431.411
  C      140.943      95.245     431.082
  C      140.470      94.420     432.130
  N      139.458      93.501     431.956
  N      140.585      95.369     429.755
  C      141.383      96.315     429.289
  N      142.233      96.793     430.242
  O      143.947      98.262     423.979
  O      142.425      96.202     424.074
  H      145.451      98.216     431.273
  H      144.585      97.554     423.750
  H      142.452      95.511     434.515
  H      141.360      96.682     428.266
  H      143.229      98.427     431.036
  H      144.841      96.321     430.042
  H      144.087      96.659     427.742
  H      144.507      99.660     428.280
  H      142.515      99.788     426.660
  H      139.148      92.967     432.756
  H      139.021      93.430     431.045
  H      144.063      99.362     425.950
  P      146.503      96.479     426.756
  C      147.896      98.213     425.419
  O      147.890      97.006     426.170
  O      145.498      96.552     425.514
  O      146.522      95.114     427.371
  H      145.399      95.667     425.107
  H      148.926      98.588     425.363
  H      147.254      98.972     425.866
  H      147.544      97.990     424.393
  H      140.823      99.889     422.539
  H      141.751      98.515     421.986
  H      142.553      99.846     422.786

 3  4  5  6  7  8  9  10  11  12  22  25  29  30  31  32 0
 6-311+G(2d,p)
 ****
 33  36  37 0
 6-311+G(2d,p)
 ****
 1  2  13  14  15  16  17  18  19  20  21  23  24  26 0
 3-21G
 ****
 27  28  34  35  38  39  40  41  42  43  44  45  46  47  48 0
 3-21G
 ****


