%nproc=1
%NoSave
%Mem=1900MB
#P OB98/GEN NMR

erre ene a

0 1
  C        0.849      79.021    -201.104
  O        0.842      77.776    -200.435
  P        1.934      76.654    -200.760
  C        3.807      77.598    -199.288
  O        3.386      77.317    -200.615
  C        4.817      76.564    -198.793
  O        5.978      76.568    -199.666
  C        5.309      76.804    -197.358
  O        5.451      75.519    -196.741
  C        6.665      77.449    -197.564
  O        7.509      77.310    -196.430
  C        7.138      76.722    -198.827
  N        8.201      77.438    -199.516
  C        9.472      77.394    -198.938
  O        9.629      76.883    -197.828
  N       10.524      77.943    -199.627
  C       10.293      78.641    -200.697
  N       11.369      79.109    -201.385
  C        8.930      78.916    -201.196
  C        7.946      78.255    -200.592
  O        1.717      75.912    -202.037
  O        1.865      75.661    -199.505
  H        1.734      74.748    -199.827
  H        8.278      77.909    -196.533
  H        8.780      79.602    -202.015
  H        6.915      78.369    -200.903
  H        7.495      75.714    -198.580
  H        6.536      78.520    -197.764
  H        4.617      77.413    -196.770
  H        4.357      75.572    -198.872
  H       12.286      78.867    -201.037
  H        2.928      77.574    -198.640
  H       11.308      79.374    -202.368
  H        4.231      78.607    -199.237
  P        5.259      75.416    -195.148
  C        2.885      74.442    -195.530
  O        3.686      75.379    -194.843
  O        5.656      76.901    -194.679
  O        6.111      74.417    -194.437
  H        5.963      76.870    -193.754
  H        1.841      74.605    -195.251
  H        3.165      73.424    -195.250
  H        2.981      74.571    -196.611
  H        0.042      79.624    -200.743
  H        0.733      78.861    -202.156
  H        1.777      79.520    -200.919

 3  4  5  6  7  8  9  10  11  12  13  24  27  28  29  30  32 0
 6-311+G(2d,p)
 ****
 34  35 0
 6-311+G(2d,p)
 ****
 1  2  14  15  16  17  18  19  20  21  22  23  25  26 0
 3-21G
 ****
 31  33  36  37  38  39  40  41  42  43  44  45  46 0
 3-21G
 ****


