%nproc=1
%NoSave
%Mem=1900MB
#P OB98/GEN NMR

erre ene a

0 1
  C      177.265    -352.648    -214.549
  O      176.307    -352.977    -213.525
  P      175.467    -354.347    -213.644
  C      175.049    -356.355    -212.011
  O      175.276    -354.957    -212.172
  C      174.956    -356.709    -210.525
  O      176.282    -356.772    -209.939
  C      174.200    -355.693    -209.676
  O      172.796    -355.806    -209.842
  C      174.679    -356.054    -208.280
  O      173.931    -357.160    -207.747
  C      176.144    -356.456    -208.539
  N      177.099    -355.434    -208.123
  C      177.809    -355.687    -206.954
  O      177.628    -356.676    -206.253
  N      178.726    -354.731    -206.594
  C      178.947    -353.538    -207.243
  O      179.768    -352.721    -206.863
  C      178.104    -353.298    -208.430
  C      177.231    -354.238    -208.803
  O      176.549    -355.344    -214.283
  O      174.241    -354.280    -214.493
  H      174.254    -357.299    -206.834
  H      176.090    -356.033    -214.790
  H      179.273    -354.904    -205.774
  H      178.227    -352.359    -208.955
  H      176.606    -354.070    -209.678
  H      176.382    -357.389    -207.997
  H      174.569    -355.223    -207.566
  H      174.532    -354.683    -209.921
  H      174.496    -357.702    -210.444
  H      175.876    -356.906    -212.468
  H      174.118    -356.618    -212.521
  P      172.114    -354.821    -210.913
  C      169.630    -354.951    -211.731
  O      170.539    -354.935    -210.643
  O      172.361    -355.629    -212.274
  O      172.691    -353.444    -210.890
  H      172.337    -356.598    -212.137
  H      170.064    -355.442    -212.601
  H      169.361    -353.914    -211.987
  H      168.723    -355.489    -211.421
  H      177.729    -351.713    -214.316
  H      176.767    -352.573    -215.493
  H      178.011    -353.414    -214.599

 3  4  5  6  7  8  9  10  11  12  13  23  28  29  30  31  32 0
 6-311+G(2d,p)
 ****
 33  34 0
 6-311+G(2d,p)
 ****
 1  2  14  15  16  17  18  19  20  21  22  24  25  26 0
 3-21G
 ****
 27  35  36  37  38  39  40  41  42  43  44  45 0
 3-21G
 ****


