%nproc=1
%NoSave
%Mem=1900MB
#P OB98/GEN NMR

erre ene a

0 1
  C     -848.355     227.432     636.151
  O     -849.542     228.186     636.301
  H     -847.679     227.980     635.491
  H     -848.583     226.463     635.694
  H     -847.856     227.286     637.115
  P     -850.589     227.766     637.436
  C     -851.751     225.759     636.309
  O     -850.812     226.182     637.287
  C     -852.519     224.530     636.815
  O     -853.107     224.850     638.124
  C     -853.668     224.080     635.879
  O     -853.775     222.646     635.936
  C     -854.864     224.732     636.541
  O     -856.074     224.132     636.163
  C     -854.507     224.553     638.022
  N     -855.327     225.412     638.878
  C     -856.386     224.802     639.551
  O     -856.660     223.606     639.453
  N     -857.167     225.642     640.300
  C     -857.074     227.015     640.338
  O     -857.864     227.698     640.967
  C     -855.976     227.589     639.559
  C     -855.163     226.786     638.886
  O     -851.857     228.567     637.493
  O     -849.754     227.861     638.806
  H     -856.758     224.284     636.846
  H     -850.358     227.945     639.570
  H     -857.940     225.214     640.808
  H     -855.866     228.671     639.572
  H     -854.336     227.173     638.294
  H     -854.651     223.500     638.338
  H     -854.919     225.791     636.278
  H     -853.520     224.399     634.849
  H     -851.808     223.716     636.985
  H     -851.213     225.507     635.388
  H     -852.455     226.580     636.104
  P     -852.955     221.700     634.938
  C     -855.003     221.228     633.448
  O     -853.637     221.688     633.474
  O     -852.668     220.340     635.484
  O     -851.571     222.493     634.691
  H     -850.832     221.861     634.767
  H     -855.369     221.254     632.443
  H     -855.605     221.863     634.064
  H     -855.049     220.225     633.818

 6  7  8  9  10  11  12  13  14  15  16  26  31  32  33  34  35 0
 6-311+G(2d,p)
 ****
 36  37 0
 6-311+G(2d,p)
 ****
 1  2  3  4  5  17  18  19  20  21  22  23  24  25 0
 3-21G
 ****
 27  28  29  30  38  39  40  41  42  43  44  45 0
 3-21G
 ****


