%nproc=1
%NoSave
%Mem=1900MB
#P OB98/GEN NMR

erre ene a

0 1
  C      -76.159     207.330     145.685
  O      -75.310     207.444     146.814
  P      -74.108     206.378     146.934
  C      -73.983     203.850     147.589
  O      -74.750     205.042     147.548
  C      -74.347     203.051     148.841
  O      -73.916     203.750     150.030
  C      -75.839     202.799     149.013
  O      -76.256     201.702     148.219
  C      -75.933     202.549     150.513
  O      -75.564     201.193     150.830
  C      -74.910     203.548     151.071
  N      -77.275     206.027     154.795
  C      -76.995     204.675     154.664
  N      -77.359     203.876     155.695
  N      -76.411     204.153     153.615
  C      -76.113     205.066     152.658
  C      -76.355     206.421     152.667
  C      -76.955     206.993     153.853
  O      -77.138     208.190     154.059
  N      -75.938     207.012     151.503
  C      -75.415     206.020     150.809
  N      -75.476     204.823     151.474
  O      -73.221     206.971     148.126
  O      -73.322     206.165     145.678
  H      -76.188     200.579     150.406
  H      -72.459     207.464     147.776
  H      -77.715     206.370     155.628
  H      -74.957     206.127     149.833
  H      -74.377     203.146     151.949
  H      -76.957     202.689     150.892
  H      -77.834     204.206     156.521
  H      -76.412     203.702     148.754
  H      -77.162     202.887     155.610
  H      -73.799     202.095     148.802
  H      -72.918     204.109     147.623
  H      -74.177     203.267     146.684
  P      -77.581     201.876     147.340
  C      -79.904     202.955     147.778
  O      -78.749     202.354     148.330
  O      -77.981     200.374     146.966
  O      -77.404     202.718     146.115
  H      -78.358     200.349     146.060
  H      -80.753     202.740     148.432
  H      -80.120     202.578     146.775
  H      -79.756     204.037     147.730
  H      -76.910     208.091     145.725
  H      -76.627     206.368     145.686
  H      -75.582     207.445     144.792

 3  4  5  6  7  8  9  10  11  12  23  26  30  31 0
 6-311+G(2d,p)
 ****
 33  35  36  37  38 0
 6-311+G(2d,p)
 ****
 1  2  13  14  15  16  17  18  19  20  21  22  24  25 0
 3-21G
 ****
 27  28  29  32  34  39  40  41  42  43  44  45  46  47  48  49 0
 3-21G
 ****


