%nproc=1
%NoSave
%Mem=1900MB
#P OB98/GEN NMR

erre ene a

0 1
  C      392.669     635.340     113.824
  O      391.758     635.979     114.717
  P      390.569     636.867     114.113
  C      389.768     639.326     114.181
  O      390.715     638.374     114.660
  C      390.063     640.732     114.738
  O      390.184     640.664     116.191
  C      391.364     641.337     114.191
  O      391.193     642.654     113.672
  C      392.341     641.192     115.346
  O      393.414     642.123     115.276
  C      391.421     641.275     116.566
  N      392.026     640.636     117.741
  C      393.278     641.092     118.128
  O      393.917     641.940     117.500
  N      393.817     640.510     119.250
  C      393.266     639.483     119.958
  O      393.811     638.958     120.923
  C      391.969     638.988     119.471
  C      391.423     639.586     118.396
  O      389.190     636.283     114.232
  O      390.979     637.029     112.570
  H      393.905     641.964     114.444
  H      390.162     636.976     112.029
  H      394.720     640.855     119.547
  H      391.516     638.164     119.978
  H      390.473     639.235     118.004
  H      391.227     642.325     116.842
  H      392.782     640.187     115.301
  H      391.736     640.754     113.334
  H      389.211     641.369     114.496
  H      388.766     639.026     114.491
  H      389.762     639.316     113.082
  P      391.464     643.076     112.152
  C      393.520     643.687     110.698
  O      393.034     643.318     111.974
  O      390.591     644.166     111.619
  O      391.196     641.713     111.344
  H      390.722     641.918     110.521
  H      394.587     643.454     110.642
  H      393.386     644.766     110.557
  H      392.995     643.143     109.895
  H      393.395     634.792     114.387
  H      393.163     636.079     113.229
  H      392.132     634.670     113.186

 3  4  5  6  7  8  9  10  11  12  13  23  28  29  30  31  32 0
 6-311+G(2d,p)
 ****
 33  34 0
 6-311+G(2d,p)
 ****
 1  2  14  15  16  17  18  19  20  21  22  24  25  26  27 0
 3-21G
 ****
 35  36  37  38  39  40  41  42  43  44  45 0
 3-21G
 ****


