%nproc=1
%NoSave
%Mem=1900MB
#P OB98/GEN NMR

erre ene a

0 1
  C      182.323     160.711     582.831
  O      181.757     159.513     583.326
  H      182.424     161.416     583.664
  H      181.678     161.160     582.071
  H      183.315     160.520     582.415
  P      181.429     158.339     582.285
  C      181.743     156.616     584.195
  O      180.897     157.101     583.155
  C      180.909     156.034     585.337
  O      180.168     157.077     586.001
  C      179.872     155.010     584.891
  O      180.492     153.772     584.581
  C      178.956     154.990     586.105
  O      179.519     154.209     587.168
  C      178.933     156.496     586.485
  N      177.776     157.211     585.954
  C      176.529     156.617     586.175
  O      176.453     155.542     586.769
  N      175.404     157.252     585.695
  C      175.512     158.394     585.092
  N      174.365     158.970     584.648
  C      176.806     159.073     584.872
  C      177.886     158.430     585.312
  O      182.518     157.990     581.318
  O      180.111     158.848     581.531
  H      180.363     154.643     587.410
  H      180.347     159.313     580.707
  H      176.844     160.035     584.372
  H      178.875     158.860     585.194
  H      178.931     156.614     587.576
  H      177.976     154.567     585.879
  H      179.306     155.386     584.032
  H      181.601     155.601     586.072
  H      173.499     158.480     584.841
  H      182.329     157.468     584.556
  H      174.307     159.922     584.317
  H      182.433     155.861     583.809
  P      180.298     153.073     583.151
  C      182.626     151.987     582.969
  O      181.236     151.766     583.178
  O      180.490     153.962     581.972
  O      178.830     152.437     583.239
  H      178.142     153.142     583.119
  H      183.146     151.052     583.008
  H      183.002     152.637     583.731
  H      182.775     152.438     582.010

 6  7  8  9  10  11  12  13  14  15  16  26  30  31  32  33  35 0
 6-311+G(2d,p)
 ****
 37  38 0
 6-311+G(2d,p)
 ****
 1  2  3  4  5  17  18  19  20  21  22  23  24  25 0
 3-21G
 ****
 27  28  29  34  36  39  40  41  42  43  44  45  46 0
 3-21G
 ****


