%nproc=1
%NoSave
%Mem=1900MB
#P OB98/GEN NMR

erre ene a

0 1
  C      565.767     456.437     971.729
  O      566.632     456.557     970.608
  P      566.188     455.772     969.260
  C      567.031     453.398     969.975
  O      567.189     454.522     969.130
  C      568.023     452.318     969.599
  O      567.719     451.799     968.259
  C      569.494     452.791     969.532
  O      570.059     452.792     970.826
  C      570.111     451.752     968.608
  O      570.423     450.543     969.312
  C      568.986     451.527     967.577
  N      571.474     452.224     963.225
  C      571.756     451.365     964.272
  N      572.824     450.529     964.119
  N      571.039     451.317     965.366
  C      570.020     452.200     965.408
  C      569.662     453.120     964.414
  C      570.415     453.117     963.198
  O      570.150     453.780     962.193
  N      568.574     453.852     964.798
  C      568.251     453.378     965.996
  N      569.081     452.354     966.404
  O      566.642     456.775     968.095
  O      564.727     455.421     969.194
  H      570.839     449.898     968.708
  H      565.867     457.304     967.774
  H      572.041     452.193     962.394
  H      567.424     453.728     966.591
  H      568.938     450.486     967.241
  H      571.058     452.102     968.149
  H      573.426     450.550     963.325
  H      569.561     453.781     969.085
  H      573.023     449.895     964.885
  H      567.945     451.481     970.298
  H      566.026     453.014     969.893
  H      567.203     453.710     971.036
  P      570.987     454.047     971.250
  C      572.923     453.306     969.700
  O      572.512     453.605     971.011
  O      570.834     454.098     972.832
  O      570.581     455.336     970.618
  H      570.844     455.046     973.144
  H      574.005     453.549     969.611
  H      572.378     453.895     968.935
  H      572.805     452.242     969.498
  H      566.167     456.996     972.549
  H      565.683     455.407     972.006
  H      564.800     456.818     971.476

 3  4  5  6  7  8  9  10  11  12  23  26  30  31 0
 6-311+G(2d,p)
 ****
 33  35  36  37  38 0
 6-311+G(2d,p)
 ****
 1  2  13  14  15  16  17  18  19  20  21  22  24  25 0
 3-21G
 ****
 27  28  29  32  34  39  40  41  42  43  44  45  46  47  48  49 0
 3-21G
 ****


