%nproc=1
%NoSave
%Mem=1900MB
#P OB98/GEN NMR

erre ene a

0 1
  C      557.297     149.571     281.198
  O      556.302     150.148     282.015
  H      556.829     148.828     280.547
  H      558.050     149.071     281.815
  H      557.775     150.333     280.572
  P      556.692     151.390     282.950
  C      558.542     151.879     284.677
  O      557.845     150.880     283.945
  C      559.481     151.224     285.684
  O      560.535     150.514     284.994
  C      560.184     152.209     286.608
  O      559.312     152.701     287.609
  C      561.336     151.358     287.116
  O      560.916     150.515     288.195
  C      561.689     150.514     285.868
  N      562.876     151.028     285.179
  C      564.061     151.011     285.906
  O      564.146     150.586     287.056
  N      565.149     151.555     285.284
  C      565.130     152.228     284.094
  O      566.066     152.912     283.690
  C      563.869     152.161     283.344
  C      562.808     151.582     283.914
  O      555.552     152.089     283.610
  O      557.484     152.370     281.960
  H      556.893     153.098     281.688
  H      561.692     149.957     288.418
  H      566.005     151.583     285.820
  H      563.826     152.620     282.362
  H      561.856     151.550     283.398
  H      561.870     149.471     286.152
  H      562.165     151.973     287.475
  H      560.594     153.040     286.017
  H      558.907     150.488     286.267
  H      557.813     152.502     285.207
  H      559.106     152.510     283.979
  P      559.696     154.026     288.434
  C      561.910     154.965     289.346
  O      561.134     153.792     289.109
  O      558.641     154.524     289.363
  O      560.015     155.105     287.299
  H      559.514     155.926     287.496
  H      562.842     154.691     289.795
  H      561.376     155.619     290.003
  H      562.095     155.464     288.418

 6  7  8  9  10  11  12  13  14  15  16  27  31  32  33  34  35 0
 6-311+G(2d,p)
 ****
 36  37 0
 6-311+G(2d,p)
 ****
 1  2  3  4  5  17  18  19  20  21  22  23  24  25 0
 3-21G
 ****
 26  28  29  30  38  39  40  41  42  43  44  45 0
 3-21G
 ****


