%nproc=1
%NoSave
%Mem=1900MB
#P OB98/GEN NMR

erre ene a

0 1
  C      112.567    -326.233    -257.189
  O      111.189    -326.041    -256.856
  P      110.745    -324.546    -256.457
  C      111.481    -322.474    -257.854
  O      110.723    -323.677    -257.808
  C      110.900    -321.510    -258.884
  O      110.839    -322.118    -260.189
  C      109.474    -321.062    -258.589
  O      109.437    -320.034    -257.610
  C      109.044    -320.530    -259.947
  O      109.514    -319.182    -260.117
  C      109.764    -321.478    -260.922
  N      106.245    -322.565    -264.402
  C      106.905    -321.377    -264.152
  N      106.602    -320.338    -264.962
  N      107.782    -321.220    -263.196
  C      108.004    -322.354    -262.484
  C      107.416    -323.587    -262.633
  C      106.423    -323.738    -263.679
  O      105.785    -324.758    -263.922
  N      107.906    -324.495    -261.729
  C      108.814    -323.819    -261.051
  N      108.901    -322.511    -261.460
  O      112.031    -323.987    -255.682
  O      109.513    -324.481    -255.622
  H      109.122    -318.843    -260.948
  H      111.763    -323.297    -255.047
  H      105.573    -322.628    -265.149
  H      109.432    -324.227    -260.261
  H      110.217    -320.934    -261.757
  H      107.954    -320.502    -260.067
  H      105.990    -320.409    -265.761
  H      108.844    -321.920    -258.309
  H      107.103    -319.471    -264.815
  H      111.560    -320.633    -258.941
  H      112.517    -322.701    -258.114
  H      111.496    -322.023    -256.857
  P      109.094    -320.470    -256.102
  C      110.568    -321.295    -254.135
  O      110.507    -320.584    -255.356
  O      108.612    -321.990    -256.263
  O      108.062    -319.623    -255.436
  H      107.983    -322.220    -255.556
  H      109.995    -322.222    -254.186
  H      110.186    -320.666    -253.325
  H      111.615    -321.541    -253.926
  H      112.735    -327.261    -257.434
  H      113.177    -325.961    -256.353
  H      112.820    -325.620    -258.029

 3  4  5  6  7  8  9  10  11  12  23  26  30  31  33  0
 6-311+G(2d,p)
 ****
 35  36  37  38 0
 6-311+G(2d,p)
 ****
 1  2  13  14  15  16  17  18  19  20  21  22  24  25  27  28  29 0
 3-21G
 ****
 32  34  39  40  41  42  43  44  45  46  47  48  49 0
 3-21G
 ****


