%nproc=1
%NoSave
%Mem=1900MB
#P OB98/GEN NMR

erre ene a

0 1
  C       56.859    -733.742     310.292
  O       56.890    -734.266     311.604
  H       55.883    -733.964     309.851
  H       57.632    -734.216     309.678
  H       57.003    -732.659     310.299
  P       58.157    -733.947     312.533
  C       60.545    -734.886     312.792
  O       59.365    -734.858     312.003
  C       61.160    -736.285     312.758
  O       61.311    -736.728     311.391
  C       62.547    -736.365     313.380
  O       62.478    -736.351     314.792
  C       63.056    -737.664     312.780
  O       62.544    -738.800     313.497
  C       62.468    -737.603     311.350
  N       63.436    -737.154     310.355
  C       64.064    -738.144     309.608
  O       63.862    -739.346     309.779
  N       64.963    -737.707     308.672
  C       65.369    -736.418     308.493
  O       66.245    -736.087     307.702
  C       64.690    -735.413     309.326
  C       63.767    -735.820     310.203
  O       57.916    -734.010     314.002
  O       58.596    -732.476     312.076
  H       62.922    -739.589     313.061
  H       58.324    -731.830     312.754
  H       65.440    -738.412     308.131
  H       64.974    -734.378     309.205
  H       63.261    -735.095     310.830
  H       62.097    -738.592     311.047
  H       64.144    -737.735     312.803
  H       63.169    -735.541     313.015
  H       60.467    -736.976     313.259
  H       60.287    -734.628     313.824
  H       61.252    -734.142     312.406
  P       63.663    -735.697     315.643
  C       66.139    -736.240     316.057
  O       64.863    -736.761     315.709
  O       63.263    -735.112     316.956
  O       64.243    -734.563     314.672
  H       64.153    -733.689     315.104
  H       66.857    -737.033     316.070
  H       66.088    -735.789     317.026
  H       66.433    -735.505     315.337

 6  7  8  9  10  11  12  13  14  15  16  26  31  32  33  34  35 0
 6-311+G(2d,p)
 ****
 36  37 0
 6-311+G(2d,p)
 ****
 1  2  3  4  5  17  18  19  20  21  22  23  24  25 0
 3-21G
 ****
 27  28  29  30  38  39  40  41  42  43  44  45 0
 3-21G
 ****


