%nproc=1
%NoSave
%Mem=1900MB
#P OB98/GEN NMR

erre ene a

0 1
  C       34.340     311.039    -296.437
  O       33.945     312.356    -296.772
  P       34.932     313.556    -296.373
  C       36.094     314.370    -294.187
  O       35.253     313.406    -294.809
  C       35.536     314.705    -292.796
  O       35.125     313.502    -292.112
  C       36.559     315.365    -291.876
  O       36.708     316.744    -292.176
  C       35.951     315.109    -290.506
  O       34.947     316.091    -290.191
  C       35.309     313.720    -290.695
  N       36.093     312.650    -290.080
  C       35.917     312.479    -288.713
  O       35.172     313.190    -288.040
  N       36.661     311.487    -288.134
  C       37.583     310.706    -288.766
  O       38.264     309.870    -288.180
  C       37.747     310.953    -290.209
  C       37.011     311.900    -290.789
  O       34.006     314.858    -296.451
  O       36.141     313.678    -297.242
  H       34.303     316.073    -290.929
  H       34.527     315.617    -296.777
  H       36.530     311.331    -287.150
  H       38.470     310.348    -290.741
  H       37.128     312.104    -291.846
  H       34.308     313.704    -290.258
  H       36.698     315.153    -289.711
  H       37.522     314.840    -291.946
  H       34.658     315.349    -292.918
  H       36.122     315.273    -294.795
  H       37.105     313.966    -294.108
  P       38.185     317.364    -292.036
  C       39.671     317.901    -289.950
  O       38.396     317.569    -290.453
  O       37.953     318.834    -292.624
  O       39.225     316.565    -292.749
  H       37.053     319.166    -292.432
  H       40.215     318.558    -290.637
  H       40.245     316.987    -289.793
  H       39.551     318.415    -288.997
  H       33.590     310.348    -296.762
  H       34.461     310.962    -295.377
  H       35.268     310.811    -296.919

 3  4  5  6  7  8  9  10  11  12  13  23  28  29  30  31  32 0
 6-311+G(2d,p)
 ****
 33  34 0
 6-311+G(2d,p)
 ****
 1  2  14  15  16  17  18  19  20  21  22  24  25  26 0
 3-21G
 ****
 27  35  36  37  38  39  40  41  42  43  44  45 0
 3-21G
 ****


