%nproc=1
%NoSave
%Mem=1900MB
#P OB98/GEN NMR

erre ene a

0 1
  C      -18.258    -279.103     -35.524
  O      -17.812    -279.592     -34.275
  P      -16.264    -279.934     -34.058
  C      -14.793    -280.653     -32.078
  O      -15.995    -280.003     -32.480
  C      -14.181    -279.940     -30.874
  O      -13.940    -278.551     -31.181
  C      -15.072    -279.936     -29.637
  O      -15.048    -281.197     -28.995
  C      -14.456    -278.798     -28.834
  O      -13.299    -279.254     -28.115
  C      -14.047    -277.815     -29.940
  N      -16.058    -273.710     -27.678
  C      -15.259    -274.694     -27.213
  N      -14.796    -275.780     -27.870
  C      -15.262    -275.800     -29.129
  C      -16.113    -274.887     -29.734
  C      -16.499    -273.783     -28.957
  N      -17.263    -272.742     -29.438
  N      -16.392    -275.275     -31.032
  C      -15.729    -276.401     -31.200
  N      -14.984    -276.721     -30.102
  O      -15.308    -279.082     -34.826
  O      -16.146    -281.465     -34.511
  H      -13.604    -279.916     -27.465
  H      -15.523    -281.534     -35.258
  H      -14.943    -274.593     -26.178
  H      -15.746    -277.005     -32.098
  H      -13.061    -277.374     -29.749
  H      -15.150    -278.377     -28.100
  H      -16.097    -279.666     -29.917
  H      -13.215    -280.411     -30.652
  H      -14.092    -280.629     -32.917
  H      -17.360    -271.933     -28.844
  H      -17.341    -272.627     -30.446
  H      -15.010    -281.696     -31.830
  P      -16.235    -281.607     -28.002
  C      -17.118    -283.777     -26.962
  O      -16.218    -283.206     -27.889
  O      -17.568    -281.002     -28.301
  O      -15.699    -281.145     -26.565
  H      -16.454    -280.878     -26.008
  H      -16.719    -283.671     -25.949
  H      -17.229    -284.840     -27.189
  H      -18.099    -283.296     -27.021
  H      -19.313    -278.932     -35.484
  H      -18.042    -279.822     -36.286
  H      -17.756    -278.185     -35.747

 3  4  5  6  7  8  9  10  11  12  22  25  29  30  31  32 0
 6-311+G(2d,p)
 ****
 33  36  37 0
 6-311+G(2d,p)
 ****
 1  2  13  14  15  16  17  18  19  20  21  23  24  26 0
 3-21G
 ****
 27  28  34  35  38  39  40  41  42  43  44  45  46  47  48 0
 3-21G
 ****


