%nproc=1
%NoSave
%Mem=1900MB
#P OB98/GEN NMR

erre ene a

0 1
  C     -149.721      97.412      14.911
  O     -148.637      96.626      15.411
  P     -147.152      97.222      15.380
  C     -146.976      98.275      17.736
  O     -146.554      97.231      16.866
  C     -145.763      99.064      18.237
  O     -146.145     100.379      18.710
  C     -145.081      98.406      19.429
  O     -144.392      97.200      19.183
  C     -144.281      99.557      20.018
  O     -143.038      99.734      19.339
  C     -145.220     100.757      19.753
  N     -145.928     101.195      20.956
  C     -145.223     102.044      21.804
  O     -144.060     102.385      21.604
  N     -145.894     102.462      22.922
  C     -147.159     102.096      23.282
  O     -147.704     102.483      24.307
  C     -147.843     101.178      22.358
  C     -147.209     100.776      21.255
  O     -146.978      98.490      14.616
  O     -146.314      96.037      14.684
  H     -143.240      99.922      18.403
  H     -145.678      96.447      14.066
  H     -145.403     103.085      23.544
  H     -148.846     100.862      22.614
  H     -147.696     100.100      20.560
  H     -144.650     101.612      19.371
  H     -144.047      99.388      21.073
  H     -145.858      98.157      20.165
  H     -145.070      99.202      17.404
  H     -147.528      97.854      18.577
  H     -147.677      98.923      17.198
  P     -144.630      95.862      20.034
  C     -146.967      94.958      19.368
  O     -145.571      94.882      19.183
  O     -144.941      96.018      21.485
  O     -143.200      95.140      19.895
  H     -143.023      94.645      20.716
  H     -147.445      94.214      18.726
  H     -147.336      95.949      19.089
  H     -147.227      94.742      20.407
  H     -150.634      96.863      15.008
  H     -149.550      97.640      13.880
  H     -149.790      98.321      15.471

 3  4  5  6  7  8  9  10  11  12  13  23  28  29  30  31  32 0
 6-311+G(2d,p)
 ****
 33  34 0
 6-311+G(2d,p)
 ****
 1  2  14  15  16  17  18  19  20  21  22  24  25  26  27 0
 3-21G
 ****
 35  36  37  38  39  40  41  42  43  44  45 0
 3-21G
 ****


