%nproc=1
%NoSave
%Mem=1900MB
#P OB98/GEN NMR

erre ene a

0 1
  C      -22.748     105.871     -36.882
  O      -23.791     106.324     -37.756
  P      -24.357     105.449     -38.981
  C      -22.888     106.779     -40.632
  O      -23.309     105.494     -40.196
  C      -23.150     106.989     -42.130
  O      -22.310     106.087     -42.919
  C      -24.609     106.745     -42.563
  O      -24.915     107.732     -43.554
  C      -24.533     105.349     -43.170
  O      -25.622     105.036     -44.016
  C      -23.178     105.455     -43.885
  N      -22.609     104.188     -44.339
  C      -23.443     103.318     -45.052
  O      -24.631     103.577     -45.243
  N      -22.914     102.138     -45.523
  C      -21.667     101.849     -45.301
  N      -21.203     100.672     -45.808
  C      -20.758     102.726     -44.540
  C      -21.288     103.865     -44.096
  O      -25.749     105.818     -39.386
  O      -24.302     103.927     -38.480
  H      -25.068     103.441     -38.841
  H      -25.630     104.072     -44.156
  H      -19.727     102.450     -44.382
  H      -20.679     104.579     -43.550
  H      -23.267     106.141     -44.736
  H      -24.512     104.616     -42.358
  H      -25.330     106.834     -41.743
  H      -22.842     108.010     -42.391
  H      -21.859     100.100     -46.334
  H      -21.813     106.875     -40.448
  H      -20.253     100.352     -45.700
  H      -23.408     107.547     -40.043
  P      -25.674     109.081     -43.123
  C      -27.952     107.860     -43.487
  O      -27.153     108.675     -42.650
  O      -25.965     109.762     -44.548
  O      -24.913     110.021     -42.246
  H      -26.050     110.729     -44.430
  H      -28.435     107.092     -42.876
  H      -27.370     107.371     -44.273
  H      -28.729     108.482     -43.951
  H      -22.545     106.624     -36.149
  H      -21.863     105.680     -37.452
  H      -23.058     104.971     -36.393

 3  4  5  6  7  8  9  10  11  12  13  24  27  28  29  30  32 0
 6-311+G(2d,p)
 ****
 34  35 0
 6-311+G(2d,p)
 ****
 1  2  14  15  16  17  18  19  20  21  22  23  25  26 0
 3-21G
 ****
 31  33  36  37  38  39  40  41  42  43  44  45  46 0
 3-21G
 ****


