%nproc=1
%NoSave
%Mem=1900MB
#P OB98/GEN NMR

erre ene a

0 1
  C      140.683     324.982    -522.675
  O      141.225     324.339    -521.517
  P      142.618     323.557    -521.635
  C      144.150     322.684    -519.739
  O      142.848     322.678    -520.310
  C      144.068     322.405    -518.235
  O      143.503     323.535    -517.517
  C      143.147     321.235    -517.891
  O      143.590     319.951    -518.264
  C      142.846     321.476    -516.423
  O      143.888     320.967    -515.588
  C      142.808     323.023    -516.358
  N      141.442     323.550    -516.281
  C      140.655     323.040    -515.256
  O      141.034     322.169    -514.479
  N      139.376     323.548    -515.180
  C      138.832     324.460    -516.026
  O      137.677     324.860    -515.920
  C      139.703     324.942    -517.107
  C      140.954     324.474    -517.180
  O      143.789     324.372    -522.063
  O      142.292     322.427    -522.735
  H      143.500     320.791    -514.710
  H      143.071     322.352    -523.324
  H      138.794     323.192    -514.439
  H      139.299     325.667    -517.799
  H      141.616     324.816    -517.971
  H      143.359     323.381    -515.475
  H      141.918     320.980    -516.110
  H      142.201     321.386    -518.439
  H      145.074     322.246    -517.849
  H      144.636     323.650    -519.921
  H      144.764     321.933    -520.252
  P      143.729     319.478    -519.793
  C      145.477     318.011    -521.036
  O      144.752     318.241    -519.846
  O      143.896     320.537    -520.826
  O      142.317     318.742    -520.028
  H      142.055     318.871    -520.959
  H      146.105     317.123    -520.894
  H      146.123     318.862    -521.265
  H      144.795     317.828    -521.867
  H      139.756     325.453    -522.421
  H      140.515     324.254    -523.441
  H      141.373     325.720    -523.029

 3  4  5  6  7  8  9  10  11  12  13  23  28  29  30  31  32 0
 6-311+G(2d,p)
 ****
 33  34 0
 6-311+G(2d,p)
 ****
 1  2  14  15  16  17  18  19  20  21  22  24  25  26  27 0
 3-21G
 ****
 35  36  37  38  39  40  41  42  43  44  45 0
 3-21G
 ****


