%nproc=1
%NoSave
%Mem=1900MB
#P OB98/GEN NMR

erre ene a

0 1
  C     -367.948     194.737     -41.241
  O     -367.560     195.210     -42.514
  H     -368.312     193.714     -41.350
  H     -368.750     195.359     -40.845
  H     -367.101     194.742     -40.548
  P     -366.691     196.551     -42.611
  C     -367.413     197.693     -44.818
  O     -366.465     196.854     -44.171
  C     -366.965     198.030     -46.245
  O     -365.708     198.761     -46.181
  C     -366.700     196.761     -47.062
  O     -366.902     196.978     -48.462
  C     -365.227     196.507     -46.819
  O     -364.612     195.712     -47.841
  C     -364.678     197.930     -46.731
  N     -359.577     197.728     -46.604
  C     -360.442     197.371     -47.618
  N     -359.866     196.883     -48.753
  N     -361.741     197.439     -47.526
  C     -362.175     197.864     -46.310
  C     -361.421     198.237     -45.218
  C     -359.980     198.181     -45.353
  O     -359.169     198.472     -44.474
  N     -362.215     198.604     -44.162
  C     -363.446     198.452     -44.609
  N     -363.473     198.031     -45.910
  O     -365.233     196.092     -42.133
  O     -367.197     197.708     -41.803
  H     -364.708     196.192     -48.687
  H     -364.722     196.861     -41.815
  H     -358.580     197.680     -46.738
  H     -364.346     198.654     -44.038
  H     -364.431     198.312     -47.729
  H     -365.123     195.946     -45.887
  H     -358.892     196.632     -48.784
  H     -367.306     195.916     -46.746
  H     -360.473     196.331     -49.363
  H     -367.694     198.697     -46.723
  H     -367.505     198.600     -44.207
  H     -368.403     197.208     -44.829
  P     -367.871     195.974     -49.256
  C     -366.694     195.683     -51.611
  O     -367.742     196.223     -50.831
  O     -369.339     196.503     -48.911
  O     -367.693     194.526     -48.893
  H     -369.833     195.827     -48.398
  H     -366.817     195.983     -52.631
  H     -366.717     194.615     -51.549
  H     -365.755     196.042     -51.244

 6  7  8  9  10  11  12  13  14  15  26  29  33  34 0
 6-311+G(2d,p)
 ****
 36  38  39  40  41 0
 6-311+G(2d,p)
 ****
 1  2  3  4  5  16  17  18  19  20  21  22  23  24  25 0
 3-21G
 ****
 27  28  30  31  32  35  37  42  43  44  45  46  47 0
 3-21G
 ****
 48  49 0
 3-21G
 ****


