%nproc=1
%NoSave
%Mem=1900MB
#P OB98/GEN NMR

erre ene a

0 1
  C     -243.406     356.171     720.062
  O     -243.052     356.050     721.429
  H     -244.068     355.355     719.775
  H     -243.931     357.120     719.913
  H     -242.507     356.161     719.439
  P     -242.305     354.705     721.871
  C     -240.255     355.912     722.908
  O     -241.379     355.077     723.133
  C     -239.990     356.777     724.136
  O     -240.938     357.872     724.147
  C     -240.103     356.033     725.487
  O     -238.881     356.128     726.212
  C     -241.186     356.794     726.245
  O     -240.886     356.955     727.631
  C     -241.247     358.137     725.522
  N     -244.349     360.585     728.742
  C     -243.008     360.443     728.738
  N     -242.226     359.863     727.790
  C     -242.978     359.430     726.757
  C     -244.352     359.539     726.610
  C     -245.058     360.131     727.674
  N     -246.431     360.232     727.716
  N     -244.760     358.975     725.411
  C     -243.652     358.508     724.870
  N     -242.560     358.737     725.650
  O     -241.246     354.468     720.684
  O     -243.195     353.522     722.059
  H     -241.051     356.091     728.056
  H     -241.292     353.539     720.390
  H     -242.484     360.827     729.606
  H     -243.603     357.951     723.942
  H     -240.501     358.844     725.911
  H     -242.137     356.250     726.156
  H     -240.383     354.980     725.355
  H     -238.989     357.221     724.042
  H     -240.448     356.571     722.049
  H     -246.853     360.557     728.562
  H     -246.962     359.789     726.967
  H     -239.386     355.292     722.676
  P     -238.665     355.060     727.405
  C     -236.717     353.672     726.360
  O     -237.121     354.605     727.348
  O     -239.442     353.772     726.872
  O     -239.171     355.512     728.732
  H     -239.747     353.225     727.618
  H     -235.669     353.479     726.459
  H     -236.915     354.073     725.388
  H     -237.262     352.760     726.487

 6  7  8  9  10  11  12  13  14  15  25  28  32  33  34  35 0
 6-311+G(2d,p)
 ****
 36  39  40 0
 6-311+G(2d,p)
 ****
 1  2  3  4  5  16  17  18  19  20  21  22  23  24 0
 3-21G
 ****
 26  27  29  30  31  37  38  41  42  43  44  45  46  47  48 0
 3-21G
 ****


