%nproc=1
%NoSave
%Mem=1900MB
#P OB98/GEN NMR

erre ene a

0 1
  C     -387.006    -279.063     871.287
  O     -387.019    -279.444     869.929
  H     -386.193    -278.359     871.477
  H     -387.956    -278.565     871.519
  H     -386.903    -279.946     871.924
  P     -385.690    -280.154     869.366
  C     -384.527    -277.863     868.984
  O     -384.457    -279.138     869.612
  C     -383.822    -276.828     869.844
  O     -382.368    -277.024     869.688
  C     -384.131    -275.346     869.464
  O     -384.658    -274.660     870.607
  C     -382.785    -274.738     869.116
  O     -382.609    -273.418     869.622
  C     -381.774    -275.712     869.751
  N     -377.781    -272.785     868.573
  C     -378.691    -272.696     869.559
  N     -379.664    -273.567     869.889
  C     -379.627    -274.643     869.083
  C     -378.746    -274.896     868.043
  C     -377.788    -273.898     867.770
  N     -376.896    -273.970     866.718
  N     -379.043    -276.096     867.420
  C     -380.099    -276.552     868.065
  N     -380.509    -275.697     869.052
  O     -385.895    -280.114     867.775
  O     -385.465    -281.547     869.858
  H     -383.305    -272.865     869.220
  H     -385.711    -281.003     867.402
  H     -378.629    -271.791     870.165
  H     -380.644    -277.465     867.837
  H     -381.589    -275.471     870.816
  H     -382.665    -274.723     868.033
  H     -384.820    -275.272     868.618
  H     -384.049    -277.006     870.891
  H     -385.574    -277.566     868.859
  H     -376.330    -273.156     866.539
  H     -376.970    -274.738     866.072
  H     -384.077    -277.940     867.984
  P     -386.248    -274.777     870.844
  C     -386.927    -272.495     869.763
  O     -386.963    -273.930     869.685
  O     -386.480    -273.878     872.152
  O     -386.736    -276.175     871.023
  H     -387.271    -274.193     872.637
  H     -387.443    -272.079     868.923
  H     -385.910    -272.163     869.756
  H     -387.401    -272.175     870.667

 6  7  8  9  10  11  12  13  14  15  25  28  32  33  34  35 0
 6-311+G(2d,p)
 ****
 36  39  40 0
 6-311+G(2d,p)
 ****
 1  2  3  4  5  16  17  18  19  20  21  22  23  24 0
 3-21G
 ****
 26  27  29  30  31  37  38  41  42  43  44  45  46  47  48 0
 3-21G
 ****


