%nproc=1
%NoSave
%Mem=1900MB
#P OB98/GEN NMR

erre ene a

0 1
  C     -766.219    -459.600    -554.569
  O     -766.339    -458.840    -553.385
  P     -765.034    -458.437    -552.539
  C     -766.375    -458.823    -550.373
  O     -765.560    -457.919    -551.113
  C     -766.680    -458.239    -548.996
  O     -765.470    -458.031    -548.234
  C     -767.341    -456.869    -549.036
  O     -768.646    -456.789    -549.572
  C     -767.166    -456.413    -547.594
  O     -768.155    -456.983    -546.736
  C     -765.764    -456.992    -547.261
  N     -764.734    -455.959    -547.242
  C     -763.884    -455.961    -546.149
  O     -763.967    -456.773    -545.223
  N     -762.936    -454.967    -546.114
  C     -762.801    -453.964    -547.032
  O     -761.953    -453.080    -546.921
  C     -763.732    -454.005    -548.166
  C     -764.644    -454.978    -548.224
  O     -764.088    -457.507    -553.230
  O     -764.387    -459.854    -552.158
  H     -767.883    -456.801    -545.821
  H     -764.966    -460.443    -551.637
  H     -762.321    -454.943    -545.315
  H     -763.637    -453.231    -548.921
  H     -765.353    -455.027    -549.052
  H     -765.776    -457.482    -546.273
  H     -767.239    -455.325    -547.503
  H     -766.734    -456.213    -549.659
  H     -767.287    -458.965    -548.447
  H     -765.839    -459.760    -550.250
  H     -767.298    -459.030    -550.932
  P     -769.024    -455.837    -550.803
  C     -770.876    -454.342    -549.761
  O     -770.558    -455.398    -550.647
  O     -768.582    -456.276    -552.161
  O     -768.260    -454.481    -550.422
  H     -767.985    -454.024    -551.239
  H     -771.961    -454.211    -549.748
  H     -770.412    -453.414    -550.094
  H     -770.549    -454.596    -548.745
  H     -767.190    -459.766    -554.986
  H     -765.762    -460.541    -554.344
  H     -765.614    -459.069    -555.274

 3  4  5  6  7  8  9  10  11  12  13  23  28  29  30  31  32 0
 6-311+G(2d,p)
 ****
 33  34 0
 6-311+G(2d,p)
 ****
 1  2  14  15  16  17  18  19  20  21  22  24  25  26  27 0
 3-21G
 ****
 35  36  37  38  39  40  41  42  43  44  45 0
 3-21G
 ****


