%nproc=1
%NoSave
%Mem=1900MB
#P OB98/GEN NMR

erre ene a

0 1
  C      671.111    -508.454    -276.611
  O      672.116    -507.948    -275.759
  H      670.173    -507.941    -276.389
  H      670.977    -509.524    -276.430
  H      671.360    -508.289    -277.661
  P      673.646    -508.286    -276.085
  C      674.115    -505.996    -277.179
  O      674.066    -507.406    -277.355
  C      674.449    -505.294    -278.502
  O      673.390    -505.552    -279.454
  C      674.529    -503.772    -278.326
  O      675.404    -503.171    -279.270
  C      673.105    -503.328    -278.618
  O      673.018    -501.961    -279.019
  C      672.695    -504.320    -279.707
  N      668.334    -503.564    -282.235
  C      669.567    -502.970    -282.423
  N      669.648    -502.058    -283.422
  N      670.614    -503.232    -281.688
  C      670.371    -504.107    -280.683
  C      669.187    -504.742    -280.383
  C      668.039    -504.473    -281.224
  O      666.922    -504.953    -281.084
  N      669.326    -505.554    -279.285
  C      670.581    -505.409    -278.922
  N      671.266    -504.556    -279.757
  O      673.584    -509.767    -276.696
  O      674.586    -508.212    -274.919
  H      672.116    -501.816    -279.359
  H      674.450    -510.206    -276.607
  H      667.563    -503.351    -282.847
  H      671.047    -505.902    -278.076
  H      673.003    -503.957    -280.695
  H      672.517    -503.433    -277.702
  H      668.822    -501.694    -283.869
  H      674.833    -503.483    -277.323
  H      670.429    -501.402    -283.373
  H      675.369    -505.714    -278.927
  H      674.888    -505.797    -276.434
  H      673.170    -505.630    -276.775
  P      676.951    -503.009    -278.883
  C      677.957    -504.660    -280.692
  O      677.767    -504.304    -279.340
  O      676.959    -503.092    -277.290
  O      677.582    -501.744    -279.377
  H      677.246    -502.249    -276.902
  H      678.532    -505.561    -280.746
  H      678.477    -503.874    -281.198
  H      677.006    -504.815    -281.157

 6  7  8  9  10  11  12  13  14  15  26  29  33  34 0
 6-311+G(2d,p)
 ****
 36  38  39  40  41 0
 6-311+G(2d,p)
 ****
 1  2  3  4  5  16  17  18  19  20  21  22  23  24  25 0
 3-21G
 ****
 27  28  30  31  32  35  37  42  43  44  45  46  47 0
 3-21G
 ****
 48  49 0
 3-21G
 ****


