%nproc=1
%NoSave
%Mem=1900MB
#P OB98/GEN NMR

erre ene a

0 1
  C     -158.798      89.344      66.361
  O     -159.316      90.529      66.965
  P     -160.693      90.448      67.784
  C     -160.172      92.454      69.304
  O     -161.056      91.913      68.332
  C     -160.801      93.615      70.085
  O     -160.942      94.790      69.243
  C     -162.188      93.306      70.669
  O     -162.274      93.986      71.926
  C     -163.116      93.938      69.651
  O     -164.421      94.151      70.164
  C     -162.322      95.200      69.301
  N     -162.758      95.807      68.053
  C     -164.054      96.320      68.011
  O     -164.812      96.159      68.968
  N     -164.464      96.975      66.874
  C     -163.700      96.977      65.827
  N     -164.132      97.653      64.729
  C     -162.397      96.287      65.779
  C     -161.983      95.750      66.923
  O     -160.770      89.359      68.802
  O     -161.782      90.228      66.626
  H     -164.889      93.290      70.210
  H     -162.494      89.652      66.969
  H     -161.833      96.246      64.859
  H     -161.039      95.230      66.992
  H     -162.407      95.948      70.101
  H     -163.200      93.284      68.774
  H     -162.365      92.238      70.827
  H     -160.114      93.882      70.900
  H     -165.040      98.100      64.768
  H     -159.265      92.806      68.806
  H     -163.572      97.745      63.891
  H     -159.853      91.652      69.980
  P     -162.546      93.130      73.256
  C     -160.542      94.078      74.613
  O     -161.941      93.942      74.498
  O     -161.485      91.933      73.095
  O     -163.923      92.574      73.411
  H     -161.800      91.162      73.601
  H     -160.325      94.875      75.330
  H     -160.087      94.344      73.654
  H     -160.106      93.145      74.981
  H     -157.881      89.571      65.858
  H     -159.507      88.964      65.656
  H     -158.617      88.608      67.117

 3  4  5  6  7  8  9  10  11  12  13  23  27  28  29  30  32 0
 6-311+G(2d,p)
 ****
 34  35 0
 6-311+G(2d,p)
 ****
 1  2  14  15  16  17  18  19  20  21  22  24  25  26 0
 3-21G
 ****
 31  33  36  37  38  39  40  41  42  43  44  45  46 0
 3-21G
 ****


