%nproc=1
%NoSave
%Mem=1900MB
#P OB98/GEN NMR

erre ene a

0 1
  C      -64.011     104.144    -198.436
  O      -64.901     104.589    -199.448
  P      -66.292     105.302    -199.073
  C      -66.693     107.343    -200.607
  O      -66.069     106.849    -199.428
  C      -65.844     108.456    -201.215
  O      -64.554     107.930    -201.594
  C      -66.424     109.076    -202.479
  O      -67.489     109.966    -202.171
  C      -65.181     109.722    -203.083
  O      -64.902     110.970    -202.430
  C      -64.088     108.688    -202.733
  N      -63.758     107.814    -203.854
  C      -62.514     108.010    -204.455
  O      -61.740     108.879    -204.047
  N      -62.150     107.190    -205.498
  C      -62.969     106.275    -205.916
  N      -62.527     105.449    -206.906
  C      -64.310     106.070    -205.347
  C      -64.634     106.862    -204.325
  O      -66.772     105.046    -197.684
  O      -67.306     104.826    -200.209
  H      -65.646     111.568    -202.637
  H      -67.772     103.980    -199.992
  H      -64.964     105.299    -205.738
  H      -65.598     106.761    -203.837
  H      -63.176     109.204    -202.406
  H      -65.270     109.918    -204.158
  H      -66.797     108.294    -203.152
  H      -65.688     109.228    -200.450
  H      -61.542     105.510    -207.143
  H      -67.677     107.746    -200.340
  H      -62.968     104.554    -207.083
  H      -66.827     106.518    -201.315
  P      -68.965     109.541    -202.628
  C      -69.717     109.028    -200.198
  O      -69.498     108.525    -201.501
  O      -68.704     108.616    -203.909
  O      -69.871     110.687    -202.932
  H      -68.869     109.121    -204.729
  H      -70.291     108.291    -199.632
  H      -70.282     109.965    -200.231
  H      -68.757     109.189    -199.694
  H      -63.149     103.700    -198.889
  H      -64.503     103.420    -197.821
  H      -63.709     104.976    -197.835

 3  4  5  6  7  8  9  10  11  12  13  23  27  28  29  30  32 0
 6-311+G(2d,p)
 ****
 34  35 0
 6-311+G(2d,p)
 ****
 1  2  14  15  16  17  18  19  20  21  22  24  25  26 0
 3-21G
 ****
 31  33  36  37  38  39  40  41  42  43  44  45  46 0
 3-21G
 ****


