%nproc=1
%NoSave
%Mem=1900MB
#P OB98/GEN NMR

erre ene a

0 1
  C      479.794      10.378     121.155
  O      480.930       9.985     120.413
  H      480.004      11.334     121.640
  H      479.589       9.630     121.927
  H      478.922      10.494     120.508
  P      480.727       8.837     119.310
  C      479.258       9.249     117.203
  O      480.447       9.584     117.913
  C      479.385       9.661     115.735
  O      479.443      11.120     115.663
  C      480.632       9.106     115.028
  O      480.298       8.787     113.673
  C      481.571      10.302     115.020
  O      482.553      10.218     113.984
  C      480.575      11.443     114.831
  N      482.690      15.552     112.858
  C      482.013      14.503     112.251
  N      481.940      14.524     110.899
  N      481.459      13.525     112.910
  C      481.589      13.640     114.255
  C      482.233      14.616     114.975
  C      482.861      15.692     114.235
  O      483.486      16.631     114.711
  N      482.199      14.341     116.325
  C      481.548      13.188     116.414
  N      481.164      12.724     115.184
  O      479.300       8.221     119.703
  O      481.791       7.790     119.271
  H      483.192       9.523     114.235
  H      479.425       7.442     120.278
  H      483.113      16.275     112.301
  H      481.349      12.646     117.328
  H      480.222      11.524     113.792
  H      482.085      10.388     115.985
  H      482.316      15.265     110.324
  H      481.073       8.229     115.524
  H      481.414      13.790     110.443
  H      478.473       9.348     115.212
  H      478.409       9.775     117.653
  H      479.085       8.169     117.289
  P      479.756       7.309     113.355
  C      477.516       6.020     113.662
  O      478.175       7.277     113.603
  O      480.338       6.447     114.573
  O      480.214       6.776     112.036
  H      480.556       5.545     114.264
  H      476.471       6.173     113.832
  H      477.926       5.439     114.462
  H      477.655       5.501     112.737

 6  7  8  9  10  11  12  13  14  15  26  29  33  34 0
 6-311+G(2d,p)
 ****
 36  38  39  40  41 0
 6-311+G(2d,p)
 ****
 1  2  3  4  5  16  17  18  19  20  21  22  23  24  25 0
 3-21G
 ****
 27  28  30  31  32  35  37  42  43  44  45  46  47 0
 3-21G
 ****
 48  49 0
 3-21G
 ****


