%nproc=1
%NoSave
%Mem=1900MB
#P OB98/GEN NMR

erre ene a

0 1
  C     -220.474     324.495      65.650
  O     -220.633     324.989      64.331
  P     -222.129     325.085      63.753
  C     -222.727     327.219      65.125
  O     -223.004     325.841      64.876
  C     -223.980     328.076      64.938
  O     -225.042     327.549      65.771
  C     -223.786     329.552      65.302
  O     -224.545     330.338      64.378
  C     -224.406     329.666      66.680
  O     -224.830     331.001      66.962
  C     -225.545     328.636      66.577
  N     -225.988     328.169      67.889
  C     -227.145     328.763      68.418
  O     -227.688     329.692      67.815
  N     -227.620     328.331      69.635
  C     -226.937     327.456      70.308
  N     -227.452     327.052      71.505
  C     -225.655     326.896      69.844
  C     -225.256     327.273      68.634
  O     -222.646     323.575      63.839
  O     -222.229     325.642      62.369
  H     -225.309     331.344      66.173
  H     -223.273     323.378      63.119
  H     -225.110     326.194      70.468
  H     -224.334     326.896      68.196
  H     -226.411     329.066      66.050
  H     -223.683     329.361      67.444
  H     -222.738     329.861      65.270
  H     -224.307     327.986      63.893
  H     -228.328     327.467      71.810
  H     -221.967     327.562      64.411
  H     -226.992     326.379      72.104
  H     -222.324     327.331      66.132
  P     -223.962     331.769      63.954
  C     -222.981     331.023      61.699
  O     -222.695     331.437      63.018
  O     -223.242     332.238      65.314
  O     -224.911     332.806      63.460
  H     -222.891     333.141      65.206
  H     -222.038     330.961      61.143
  H     -223.633     331.743      61.204
  H     -223.441     330.029      61.701
  H     -219.435     324.485      65.904
  H     -220.865     323.501      65.708
  H     -221.002     325.126      66.333

 3  4  5  6  7  8  9  10  11  12  13  21  23  27  28  29  30  32 0
 6-311+G(2d,p)
 ****
 34  35 0
 6-311+G(2d,p)
 ****
 1  2  14  15  16  17  18  19  20  22  24  25  26 0
 3-21G
 ****
 31  33  36  37  38  39  40  41  42  43  44  45  46 0
 3-21G
 ****


