%nproc=1
%NoSave
%Mem=1900MB
#P OB98/GEN NMR

erre ene a

0 1
  C       46.597     198.362     634.100
  O       46.667     198.448     632.678
  P       47.907     197.961     631.791
  C       47.413     195.381     631.921
  O       48.285     196.467     632.234
  C       48.187     194.092     631.504
  O       48.974     193.643     632.653
  C       47.202     192.975     631.189
  O       46.618     192.894     629.893
  C       47.912     191.700     631.628
  O       48.629     191.079     630.558
  C       48.892     192.208     632.709
  N       49.817     189.091     636.677
  C       50.428     189.135     635.436
  N       51.373     188.185     635.191
  N       50.127     190.001     634.492
  C       49.105     190.823     634.847
  C       48.408     190.885     636.024
  C       48.789     189.939     637.063
  O       48.289     189.878     638.197
  N       47.425     191.835     635.999
  C       47.511     192.341     634.794
  N       48.525     191.762     634.056
  O       49.038     198.935     631.671
  O       47.268     197.764     630.332
  H       48.937     190.209     630.855
  H       47.978     197.989     629.682
  H       50.092     188.421     637.358
  H       46.868     193.126     634.398
  H       49.911     191.818     632.527
  H       47.189     190.966     632.000
  H       51.565     187.434     635.819
  H       46.344     193.083     631.882
  H       51.664     188.084     634.220
  H       48.888     194.314     630.698
  H       46.762     195.717     631.102
  H       46.756     195.167     632.779
  P       45.213     193.541     629.444
  C       45.959     194.915     627.398
  O       45.532     194.955     628.756
  O       44.535     193.971     630.827
  O       44.331     192.633     628.657
  H       43.557     194.129     630.685
  H       46.432     195.871     627.145
  H       45.101     194.751     626.739
  H       46.697     194.109     627.256
  H       45.661     198.757     634.436
  H       47.398     198.926     634.531
  H       46.680     197.338     634.400

 3  4  5  6  7  8  9  10  11  12  23  26  30  31 0
 6-311+G(2d,p)
 ****
 33  35  36  37  38 0
 6-311+G(2d,p)
 ****
 1  2  13  14  15  16  17  18  19  20  21  22  24  25 0
 3-21G
 ****
 27  28  29  32  34  39  40  41  42  43  44  45  46  47  48  49 0
 3-21G
 ****


