%nproc=1
%NoSave
%Mem=1900MB
#P OB98/GEN NMR

erre ene a

0 1
  C      246.537     -86.017    1447.048
  O      246.109     -86.856    1445.991
  H      247.165     -86.606    1447.727
  H      245.682     -85.636    1447.605
  H      247.139     -85.191    1446.657
  P      245.088     -86.262    1444.909
  C      247.128     -85.882    1443.372
  O      245.942     -85.328    1443.926
  C      247.348     -85.371    1441.941
  O      246.427     -86.057    1441.052
  C      247.091     -83.860    1441.782
  O      247.954     -83.391    1440.721
  C      245.642     -83.845    1441.325
  O      245.279     -82.594    1440.806
  C      245.632     -85.055    1440.392
  N      244.280     -85.529    1440.096
  C      243.381     -84.571    1439.632
  O      243.734     -83.392    1439.501
  N      242.093     -84.949    1439.365
  C      241.726     -86.174    1439.589
  N      240.431     -86.495    1439.318
  C      242.631     -87.207    1440.135
  C      243.898     -86.821    1440.362
  O      243.858     -85.621    1445.472
  O      244.722     -87.523    1443.991
  H      245.751     -82.419    1439.960
  H      243.824     -87.843    1444.212
  H      242.275     -88.209    1440.341
  H      244.631     -87.494    1440.770
  H      246.132     -84.818    1439.437
  H      244.976     -84.026    1442.194
  H      247.287     -83.290    1442.691
  H      248.366     -85.637    1441.614
  H      239.837     -85.753    1438.948
  H      247.021     -86.973    1443.365
  H      240.026     -87.399    1439.477
  H      247.998     -85.626    1443.996
  P      249.107     -82.318    1440.948
  C      250.710     -83.822    1439.584
  O      250.538     -83.025    1440.746
  O      248.988     -81.542    1442.236
  O      249.021     -81.328    1439.689
  H      249.310     -80.442    1439.974
  H      251.699     -84.229    1439.574
  H      250.564     -83.218    1438.713
  H      249.996     -84.619    1439.589

 6  7  8  9  10  11  12  13  14  15  16  26  30  31  32  33  35 0
 6-311+G(2d,p)
 ****
 37  38 0
 6-311+G(2d,p)
 ****
 1  2  3  4  5  17  18  19  20  21  22  23  24  25 0
 3-21G
 ****
 27  28  29  34  36  39  40  41  42  43  44  45  46 0
 3-21G
 ****


