%nproc=1
%NoSave
%Mem=1900MB
#P OB98/GEN NMR

erre ene a

0 1
  C      -17.160      42.938    -123.886
  O      -16.160      42.395    -124.725
  H      -17.204      44.023    -124.005
  H      -18.127      42.514    -124.169
  H      -16.954      42.686    -122.841
  P      -14.661      42.919    -124.496
  C      -14.224      42.810    -127.058
  O      -13.831      42.383    -125.761
  C      -13.441      42.026    -128.105
  O      -12.024      42.105    -127.827
  C      -13.774      40.539    -128.136
  O      -14.945      40.259    -128.883
  C      -12.537      39.986    -128.822
  O      -12.608      40.245    -130.235
  C      -11.424      40.828    -128.179
  N       -9.536      36.529    -126.141
  C       -9.966      36.823    -127.387
  N      -10.434      37.998    -127.855
  C      -10.424      38.931    -126.891
  C      -10.008      38.782    -125.579
  C       -9.550      37.507    -125.206
  N       -9.140      37.194    -123.929
  N      -10.168      39.963    -124.880
  C      -10.653      40.812    -125.763
  N      -10.856      40.227    -126.984
  O      -14.118      42.008    -123.297
  O      -14.514      44.380    -124.232
  H      -11.716      40.086    -130.599
  H      -13.298      42.387    -122.927
  H       -9.933      36.005    -128.101
  H      -10.884      41.851    -125.566
  H      -10.596      41.027    -128.868
  H      -12.434      38.905    -128.698
  H      -13.839      40.121    -127.125
  H      -13.614      42.489    -129.084
  H      -14.010      43.879    -127.162
  H       -8.972      36.222    -123.725
  H       -9.285      37.870    -123.194
  H      -15.297      42.643    -127.187
  P      -15.608      38.806    -128.705
  C      -14.632      37.571    -130.771
  O      -15.765      38.197    -130.181
  O      -17.112      39.149    -128.285
  O      -14.926      37.930    -127.707
  H      -17.471      38.466    -127.688
  H      -14.888      37.217    -131.748
  H      -14.323      36.747    -130.163
  H      -13.833      38.278    -130.847

 6  7  8  9  10  11  12  13  14  15  25  28  32  33  34  35 0
 6-311+G(2d,p)
 ****
 36  39  40 0
 6-311+G(2d,p)
 ****
 1  2  3  4  5  16  17  18  19  20  21  22  23  24 0
 3-21G
 ****
 26  27  29  30  31  37  38  41  42  43  44  45  46  47 0
 3-21G
 ****
 48 0
 3-21G
 ****


