%nproc=1
%NoSave
%Mem=1900MB
#P OB98/GEN NMR

erre ene a

0 1
  C     -407.448      48.176    -202.193
  O     -408.120      47.768    -200.998
  P     -407.436      46.830    -199.888
  C     -409.346      45.096    -199.955
  O     -407.942      45.322    -200.082
  C     -409.721      43.663    -200.333
  O     -409.390      43.395    -201.708
  C     -409.009      42.579    -199.529
  O     -409.561      42.459    -198.229
  C     -409.219      41.363    -200.424
  O     -410.513      40.778    -200.213
  C     -409.116      41.982    -201.834
  N     -407.827      41.743    -202.463
  C     -407.825      40.912    -203.588
  O     -408.866      40.386    -203.974
  N     -406.632      40.691    -204.239
  C     -405.536      41.183    -203.759
  N     -404.389      40.936    -204.450
  C     -405.478      41.987    -202.522
  C     -406.653      42.224    -201.935
  O     -407.568      47.341    -198.491
  O     -405.893      46.758    -200.310
  H     -411.156      41.511    -200.261
  H     -405.345      46.652    -199.506
  H     -404.541      42.354    -202.139
  H     -406.703      42.812    -201.022
  H     -409.906      41.584    -202.482
  H     -408.477      40.575    -200.243
  H     -407.938      42.810    -199.468
  H     -410.809      43.563    -200.223
  H     -404.461      40.389    -205.295
  H     -409.866      45.791    -200.623
  H     -403.483      41.272    -204.165
  H     -409.643      45.307    -198.920
  P     -408.820      43.147    -196.984
  C     -407.501      41.200    -195.952
  O     -407.440      42.368    -196.752
  O     -409.658      43.339    -195.763
  O     -408.329      44.557    -197.568
  H     -408.330      45.215    -196.851
  H     -406.643      40.565    -196.193
  H     -408.424      40.640    -196.141
  H     -407.457      41.481    -194.898
  H     -408.100      48.793    -202.776
  H     -407.174      47.312    -202.761
  H     -406.568      48.728    -201.937

 3  4  5  6  7  8  9  10  11  12  13  23  27  28  29  30  32 0
 6-311+G(2d,p)
 ****
 34  35 0
 6-311+G(2d,p)
 ****
 1  2  14  15  16  17  18  19  20  21  22  24  25  26 0
 3-21G
 ****
 31  33  36  37  38  39  40  41  42  43  44  45  46 0
 3-21G
 ****


