%nproc=1
%NoSave
%Mem=1900MB
#P OB98/GEN NMR

erre ene a

0 1
  C      -57.046     369.819    -319.878
  O      -57.622     370.642    -318.865
  P      -58.670     369.949    -317.867
  C      -60.655     370.658    -319.432
  O      -60.104     370.621    -318.126
  C      -61.189     372.064    -319.765
  O      -62.339     372.334    -318.914
  C      -60.217     373.211    -319.492
  O      -60.657     374.361    -320.218
  C      -60.418     373.447    -318.014
  O      -59.930     374.721    -317.617
  C      -61.933     373.226    -317.842
  N      -62.301     372.639    -316.534
  C      -62.670     373.498    -315.499
  O      -62.691     374.722    -315.606
  N      -62.964     372.905    -314.300
  C      -62.975     371.568    -314.045
  O      -63.157     371.090    -312.931
  C      -62.722     370.700    -315.206
  C      -62.398     371.264    -316.370
  O      -58.237     370.501    -316.424
  O      -58.669     368.464    -317.921
  H      -58.948     374.703    -317.723
  H      -57.783     369.794    -315.924
  H      -63.157     373.523    -313.523
  H      -62.796     369.631    -315.062
  H      -62.187     370.632    -317.235
  H      -62.485     374.167    -317.944
  H      -59.863     372.698    -317.445
  H      -59.182     372.992    -319.743
  H      -61.538     372.083    -320.799
  H      -61.450     369.921    -319.523
  H      -59.884     370.384    -320.159
  P      -60.617     374.309    -321.823
  C      -60.509     376.872    -321.946
  O      -61.202     375.702    -322.340
  O      -61.196     373.081    -322.452
  O      -59.044     374.446    -322.142
  H      -58.866     374.133    -323.045
  H      -60.634     377.638    -322.708
  H      -59.442     376.679    -321.808
  H      -60.931     377.234    -321.000
  H      -56.370     370.401    -320.469
  H      -57.821     369.428    -320.503
  H      -56.514     369.010    -319.421

 3  4  5  6  7  8  9  10  11  12  13  23  28  29  30  31  32 0
 6-311+G(2d,p)
 ****
 33  34 0
 6-311+G(2d,p)
 ****
 1  2  14  15  16  17  18  19  20  21  22  24  25  26  27 0
 3-21G
 ****
 35  36  37  38  39  40  41  42  43  44  45 0
 3-21G
 ****


