%nproc=1
%NoSave
%Mem=1900MB
#P OB98/GEN NMR

erre ene a

0 1
  C       87.455     176.331     154.470
  O       87.603     176.827     155.789
  P       88.148     178.314     156.041
  C       90.129     179.679     155.111
  O       89.578     178.379     155.313
  C       91.642     179.671     155.354
  O       91.932     179.399     156.738
  C       92.393     178.610     154.557
  O       92.549     179.017     153.205
  C       93.696     178.519     155.347
  O       94.608     179.560     154.965
  C       93.213     178.723     156.798
  N       93.126     177.466     157.539
  C       94.340     176.965     158.034
  O       95.392     177.560     157.802
  N       94.327     175.776     158.728
  C       93.203     175.144     158.898
  N       93.261     173.965     159.588
  C       91.915     175.625     158.366
  C       91.945     176.778     157.704
  O       88.135     178.759     157.469
  O       87.219     179.208     155.089
  H       95.468     179.337     155.380
  H       86.304     179.305     155.459
  H       91.009     175.052     158.524
  H       91.042     177.199     157.279
  H       93.887     179.397     157.341
  H       94.206     177.562     155.183
  H       91.861     177.654     154.618
  H       92.032     180.669     155.111
  H       94.170     173.661     159.906
  H       89.655     180.367     155.818
  H       92.457     173.377     159.743
  H       89.904     180.019     154.093
  P       92.357     177.953     152.028
  C       93.456     175.751     151.273
  O       93.494     176.827     152.191
  O       92.223     178.530     150.656
  O       91.018     177.165     152.445
  H       90.455     177.060     151.651
  H       94.434     175.264     151.264
  H       93.223     176.108     150.262
  H       92.695     175.034     151.586
  H       87.082     175.329     154.506
  H       88.404     176.341     153.977
  H       86.767     176.949     153.932

 3  4  5  6  7  8  9  10  11  12  13  23  27  28  29  30  32 0
 6-311+G(2d,p)
 ****
 34  35 0
 6-311+G(2d,p)
 ****
 1  2  14  15  16  17  18  19  20  21  22  24  25  26 0
 3-21G
 ****
 31  33  36  37  38  39  40  41  42  43  44  45  46 0
 3-21G
 ****


