%nproc=1
%NoSave
%Mem=1900MB
#P OB98/GEN NMR

erre ene a

0 1
  C      262.043    -100.088     381.844
  O      261.506     -98.789     381.690
  H      261.260    -100.745     382.230
  H      262.869    -100.073     382.560
  H      262.389    -100.483     380.884
  P      262.424     -97.646     381.040
  C      264.406     -97.985     382.641
  O      263.382     -97.103     382.212
  C      264.804     -97.684     384.086
  O      265.463     -96.391     384.131
  C      263.615     -97.640     385.053
  O      264.024     -98.209     386.298
  C      263.361     -96.155     385.231
  O      262.741     -95.856     386.482
  C      264.768     -95.577     385.093
  N      265.807     -90.836     386.499
  C      266.042     -92.030     387.150
  N      266.616     -91.956     388.369
  N      265.736     -93.200     386.650
  C      265.180     -93.128     385.416
  C      264.897     -92.010     384.669
  C      265.226     -90.721     385.239
  O      265.030     -89.631     384.713
  N      264.307     -92.347     383.475
  C      264.233     -93.666     383.506
  N      264.739     -94.185     384.665
  O      261.688     -96.575     380.299
  O      263.428     -98.448     380.087
  H      263.081     -94.979     386.766
  H      263.135     -98.398     379.157
  H      266.052     -89.963     386.934
  H      263.817     -94.285     382.720
  H      265.326     -95.606     386.041
  H      262.708     -95.792     384.426
  H      266.892     -91.091     388.811
  H      262.735     -98.167     384.674
  H      266.819     -92.821     388.858
  H      265.543     -98.428     384.407
  H      265.277     -97.852     381.986
  H      264.058     -99.021     382.556
  P      263.715     -99.757     386.577
  C      261.387     -99.153     387.501
  O      262.607     -99.846     387.738
  O      264.914    -100.633     386.769
  O      262.886    -100.193     385.271
  H      263.051    -101.139     385.098
  H      260.733     -99.285     388.338
  H      260.921     -99.542     386.620
  H      261.589     -98.111     387.367

 6  7  8  9  10  11  12  13  14  15  26  29  33  34 0
 6-311+G(2d,p)
 ****
 36  38  39  40  41 0
 6-311+G(2d,p)
 ****
 1  2  3  4  5  16  17  18  19  20  21  22  23  24  25 0
 3-21G
 ****
 27  28  30  31  32  35  37  42  43  44  45  46  47 0
 3-21G
 ****
 48  49 0
 3-21G
 ****


