%nproc=1
%NoSave
%Mem=1900MB
#P OB98/GEN NMR

erre ene a

0 1
  C      168.423     -68.691     981.616
  O      168.635     -67.626     980.713
  P      168.932     -66.153     981.274
  C      167.568     -64.705     982.909
  O      167.534     -65.508     981.738
  C      166.166     -64.214     983.260
  O      165.192     -65.236     982.991
  C      165.992     -63.844     984.734
  O      166.581     -62.593     985.021
  C      164.466     -63.884     984.869
  O      163.890     -62.649     984.388
  C      164.099     -65.045     983.915
  N      160.772     -67.460     986.944
  C      160.856     -66.171     986.528
  N      161.790     -65.598     985.750
  C      162.741     -66.482     985.423
  C      162.820     -67.816     985.807
  C      161.768     -68.318     986.586
  N      161.648     -69.631     986.969
  N      163.972     -68.401     985.294
  C      164.577     -67.438     984.630
  N      163.827     -66.279     984.624
  O      169.752     -65.285     980.383
  O      169.695     -66.421     982.656
  H      164.305     -61.933     984.901
  H      170.585     -66.022     982.617
  H      160.036     -65.524     986.853
  H      165.521     -67.526     984.120
  H      163.205     -64.811     983.316
  H      164.132     -64.025     985.891
  H      166.420     -64.630     985.370
  H      165.938     -63.346     982.616
  H      168.225     -63.850     982.709
  H      160.779     -69.917     987.400
  H      162.194     -70.333     986.469
  H      167.993     -65.280     983.734
  P      167.071     -62.272     986.510
  C      165.913     -61.921     988.788
  O      165.761     -61.945     987.374
  O      168.188     -61.276     986.618
  O      167.519     -63.702     987.081
  H      168.241     -63.597     987.715
  H      165.933     -62.954     989.143
  H      165.073     -61.414     989.221
  H      166.848     -61.416     989.061
  H      168.241     -69.592     981.068
  H      167.577     -68.472     982.234
  H      169.290     -68.816     982.230

 3  4  5  6  7  8  9  10  11  12  22  25  29  30  31  32 0
 6-311+G(2d,p)
 ****
 33  36  37 0
 6-311+G(2d,p)
 ****
 1  2  13  14  15  16  17  18  19  20  21  23  24  26 0
 3-21G
 ****
 27  28  34  35  38  39  40  41  42  43  44  45  46  47  48 0
 3-21G
 ****


