%nproc=1
%NoSave
%Mem=1900MB
#P OB98/GEN NMR

erre ene a

0 1
  C     -278.006      19.648     -69.576
  O     -277.423      18.388     -69.830
  H     -277.216      20.356     -69.318
  H     -278.699      19.577     -68.734
  H     -278.533      20.015     -70.463
  P     -278.383      17.227     -70.383
  C     -277.157      17.076     -72.668
  O     -278.372      17.347     -71.986
  C     -277.001      15.572     -72.903
  O     -277.999      15.146     -73.866
  C     -275.626      15.176     -73.443
  O     -275.239      13.937     -72.844
  C     -275.866      14.962     -74.927
  O     -274.923      14.072     -75.520
  C     -277.317      14.460     -74.934
  N     -277.956      14.698     -76.226
  C     -277.392      14.059     -77.333
  O     -276.396      13.347     -77.199
  N     -277.926      14.288     -78.576
  C     -278.889      15.147     -78.713
  N     -279.356      15.354     -79.974
  C     -279.472      15.894     -77.582
  C     -278.968      15.618     -76.379
  O     -279.846      17.737     -69.988
  O     -278.095      15.859     -69.863
  H     -275.242      13.843     -76.419
  H     -280.443      16.987     -69.803
  H     -280.253      16.622     -77.749
  H     -279.327      16.123     -75.489
  H     -277.354      13.385     -74.715
  H     -275.798      15.925     -75.451
  H     -274.853      15.926     -73.252
  H     -277.218      15.050     -71.964
  H     -278.917      14.834     -80.728
  H     -276.319      17.428     -72.056
  H     -280.070      16.031     -80.204
  H     -277.146      17.615     -73.621
  P     -273.938      13.960     -71.905
  C     -275.208      15.153     -69.979
  O     -274.094      15.169     -70.864
  O     -272.781      14.459     -72.894
  O     -273.612      12.637     -71.297
  H     -272.178      13.721     -73.099
  H     -275.176      16.018     -69.350
  H     -275.171      14.271     -69.375
  H     -276.115      15.158     -70.547

 6  7  8  9  10  11  12  13  14  15  16  26  30  31  32  33  35 0
 6-311+G(2d,p)
 ****
 37  38 0
 6-311+G(2d,p)
 ****
 1  2  3  4  5  17  18  19  20  21  22  23  24  25 0
 3-21G
 ****
 27  28  29  34  36  39  40  41  42  43  44  45  46 0
 3-21G
 ****


