%nproc=1
%NoSave
%Mem=1900MB
#P OB98/GEN NMR

erre ene a

0 1
  C      244.073     349.605     -36.679
  O      244.060     350.994     -36.412
  H      244.359     349.453     -37.722
  H      243.085     349.166     -36.517
  H      244.809     349.110     -36.039
  P      243.405     351.494     -35.033
  C      240.986     351.203     -35.878
  O      241.974     350.761     -34.953
  C      239.677     351.548     -35.167
  O      238.694     352.030     -36.110
  C      239.009     350.365     -34.484
  O      239.718     349.840     -33.384
  C      237.593     350.878     -34.279
  O      237.471     351.694     -33.115
  C      237.392     351.738     -35.553
  N      236.524     351.091     -36.528
  C      235.194     350.932     -36.151
  O      234.752     351.287     -35.058
  N      234.384     350.321     -37.065
  C      234.774     349.818     -38.273
  O      234.000     349.258     -39.041
  C      236.200     349.978     -38.600
  C      236.997     350.599     -37.728
  O      243.337     352.980     -34.849
  O      244.260     350.742     -33.910
  H      237.472     351.092     -32.346
  H      244.117     351.151     -33.020
  H      233.412     350.210     -36.816
  H      236.547     349.582     -39.544
  H      238.054     350.734     -37.949
  H      236.946     352.706     -35.291
  H      236.870     350.065     -34.182
  H      238.939     349.544     -35.209
  H      239.879     352.356     -34.457
  H      240.806     350.388     -36.588
  H      241.360     352.074     -36.424
  P      239.854     348.282     -33.077
  C      237.462     347.909     -32.087
  O      238.393     347.624     -33.124
  O      240.763     347.897     -31.954
  O      240.513     347.735     -34.448
  H      241.106     346.997     -34.205
  H      236.546     347.390     -32.278
  H      237.275     348.962     -32.055
  H      237.864     347.589     -31.149

 6  7  8  9  10  11  12  13  14  15  16  26  31  32  33  34  35 0
 6-311+G(2d,p)
 ****
 36  37 0
 6-311+G(2d,p)
 ****
 1  2  3  4  5  17  18  19  20  21  22  23  24  25 0
 3-21G
 ****
 27  28  29  30  38  39  40  41  42  43  44  45 0
 3-21G
 ****


