%nproc=1
%NoSave
%Mem=1900MB
#P OB98/GEN NMR

erre ene a

0 1
  C     -199.331     507.338    1707.057
  O     -199.997     508.586    1706.859
  P     -200.981     509.235    1707.958
  C     -199.664     511.479    1708.058
  O     -200.170     510.353    1708.812
  C     -198.828     512.405    1708.984
  O     -197.744     511.658    1709.618
  C     -198.152     513.564    1708.256
  O     -199.086     514.579    1707.934
  C     -197.069     513.939    1709.243
  O     -197.621     514.817    1710.282
  C     -196.661     512.577    1709.849
  N     -195.396     512.093    1709.273
  C     -194.258     512.852    1709.576
  O     -194.344     513.910    1710.200
  N     -193.036     512.377    1709.083
  C     -192.985     511.330    1708.355
  N     -191.746     510.935    1707.928
  C     -194.168     510.529    1707.973
  C     -195.329     510.987    1708.445
  O     -201.709     508.227    1708.800
  O     -202.021     510.126    1707.113
  H     -196.839     515.108    1710.827
  H     -202.891     510.138    1707.581
  H     -194.109     509.681    1707.323
  H     -196.263     510.455    1708.229
  H     -196.550     512.651    1710.930
  H     -196.237     514.497    1708.784
  H     -197.662     513.194    1707.317
  H     -199.483     512.792    1709.775
  H     -190.963     511.480    1708.216
  H     -200.519     512.034    1707.673
  H     -191.624     510.104    1707.344
  H     -199.033     511.105    1707.207
  P     -199.640     514.729    1706.408
  C     -202.154     514.819    1707.015
  O     -201.127     514.105    1706.368
  O     -198.709     514.232    1705.326
  O     -199.926     516.305    1706.273
  H     -199.776     516.581    1705.358
  H     -203.115     514.516    1706.591
  H     -202.005     515.917    1706.877
  H     -202.141     514.598    1708.083
  H     -198.735     507.111    1706.198
  H     -200.057     506.565    1707.201
  H     -198.702     507.402    1707.920

 3  4  5  6  7  8  9  10  11  12  13  23  27  28  29  30  32 0
 6-311+G(2d,p)
 ****
 34  35 0
 6-311+G(2d,p)
 ****
 1  2  14  15  16  17  18  19  20  21  22  24  25  26 0
 3-21G
 ****
 31  33  36  37  38  39  40  41  42  43  44  45  46 0
 3-21G
 ****


