%nproc=1
%NoSave
%Mem=1900MB
#P OB98/GEN NMR

erre ene a

0 1
  C        3.652    -445.670    -716.393
  O        2.585    -445.102    -715.651
  H        4.503    -444.989    -716.367
  H        3.365    -445.819    -717.435
  H        3.952    -446.627    -715.953
  P        1.169    -445.847    -715.672
  C       -0.621    -444.009    -716.061
  O        0.109    -444.776    -715.103
  C       -1.304    -442.830    -715.373
  O       -2.320    -443.292    -714.456
  C       -0.348    -441.990    -714.533
  O        0.461    -441.175    -715.345
  C       -1.318    -441.267    -713.629
  O       -1.907    -440.144    -714.294
  C       -2.372    -442.372    -713.353
  N       -2.143    -443.051    -712.084
  C       -3.206    -443.007    -711.159
  O       -4.245    -442.409    -711.439
  N       -3.028    -443.620    -709.940
  C       -1.922    -444.245    -709.675
  N       -1.829    -444.819    -708.448
  C       -0.786    -444.329    -710.623
  C       -0.969    -443.726    -711.798
  O        1.095    -447.192    -715.016
  O        0.805    -445.927    -717.231
  H       -2.555    -440.528    -714.944
  H        1.151    -446.744    -717.624
  H        0.106    -444.869    -710.358
  H       -0.188    -443.735    -712.547
  H       -3.379    -441.934    -713.336
  H       -0.828    -440.892    -712.726
  H        0.281    -442.650    -713.899
  H       -1.789    -442.215    -716.149
  H       -2.603    -444.728    -707.814
  H       -1.375    -444.678    -716.496
  H       -1.045    -445.397    -708.156
  H        0.030    -443.659    -716.860
  P        2.014    -440.942    -715.006
  C        2.003    -438.393    -715.452
  O        2.472    -439.682    -715.883
  O        2.886    -442.153    -715.120
  O        1.972    -440.331    -713.513
  H        1.761    -441.043    -712.845
  H        2.374    -437.639    -716.114
  H        2.353    -438.200    -714.459
  H        0.933    -438.381    -715.462

 6  7  8  9  10  11  12  13  14  15  16  26  30  31  32  33  35 0
 6-311+G(2d,p)
 ****
 37  38 0
 6-311+G(2d,p)
 ****
 1  2  3  4  5  17  18  19  20  21  22  23  24  25 0
 3-21G
 ****
 27  28  29  34  36  39  40  41  42  43  44  45  46 0
 3-21G
 ****


