%nproc=1
%NoSave
%Mem=1900MB
#P OB98/GEN NMR

erre ene a

0 1
  C      273.167     108.959      43.875
  O      274.456     109.004      43.238
  P      274.568     108.654      41.673
  C      275.735     106.382      42.240
  O      275.737     107.576      41.470
  C      277.144     105.783      42.285
  O      278.023     106.614      43.078
  C      277.219     104.403      42.926
  O      276.762     103.387      42.050
  C      278.707     104.301      43.248
  O      279.455     103.883      42.092
  C      279.052     105.758      43.620
  N      279.199     105.947      45.063
  C      280.466     105.724      45.591
  O      281.416     105.328      44.916
  N      280.600     105.938      46.934
  C      279.596     106.278      47.798
  O      279.776     106.438      49.000
  C      278.262     106.422      47.195
  C      278.125     106.248      45.879
  O      275.239     109.986      41.081
  O      273.277     108.362      40.980
  H      280.399     103.915      42.345
  H      274.971     110.102      40.150
  H      281.518     105.811      47.331
  H      277.434     106.668      47.850
  H      277.146     106.351      45.420
  H      279.985     106.062      43.133
  H      278.914     103.578      44.041
  H      276.649     104.395      43.861
  H      277.538     105.755      41.262
  H      275.053     105.659      41.783
  H      275.379     106.610      43.250
  P      275.532     102.492      42.568
  C      276.409     100.211      41.633
  O      275.457     101.252      41.555
  O      274.290     103.423      42.174
  O      275.624     102.153      44.018
  H      274.455     103.930      41.361
  H      276.732     100.038      42.663
  H      277.275     100.466      41.019
  H      275.957      99.292      41.246
  H      273.271     109.217      44.908
  H      272.763     107.972      43.793
  H      272.509     109.655      43.398

 3  4  5  6  7  8  9  10  11  12  13  23  28  29  30  31  32 0
 6-311+G(2d,p)
 ****
 33  34 0
 6-311+G(2d,p)
 ****
 1  2  14  15  16  17  18  19  20  21  22  24  25  26 0
 3-21G
 ****
 27  35  36  37  38  39  40  41  42  43  44  45 0
 3-21G
 ****


