%nproc=1
%NoSave
%Mem=1900MB
#P OB98/GEN NMR

erre ene a

0 1
  C     -236.400    -771.586     -81.140
  O     -235.885    -772.590     -80.270
  P     -235.531    -772.187     -78.758
  C     -232.992    -772.056     -79.218
  O     -234.029    -772.657     -78.442
  C     -231.686    -771.992     -78.409
  O     -231.910    -771.186     -77.223
  C     -231.162    -773.347     -77.898
  O     -230.292    -774.089     -78.747
  C     -230.338    -772.910     -76.692
  O     -229.025    -772.498     -77.126
  C     -231.103    -771.713     -76.141
  N     -231.153    -772.688     -71.123
  C     -230.153    -772.379     -71.972
  N     -230.225    -772.135     -73.292
  C     -231.494    -772.218     -73.730
  C     -232.623    -772.523     -72.982
  C     -232.412    -772.772     -71.607
  N     -233.436    -773.087     -70.746
  N     -233.750    -772.524     -73.776
  C     -233.300    -772.247     -74.981
  N     -231.947    -772.038     -75.010
  O     -236.552    -772.552     -77.732
  O     -235.376    -770.595     -78.858
  H     -228.532    -772.263     -76.319
  H     -235.737    -770.191     -78.048
  H     -229.163    -772.327     -71.532
  H     -233.925    -772.191     -75.870
  H     -230.434    -770.910     -75.809
  H     -230.185    -773.728     -75.979
  H     -231.994    -773.982     -77.572
  H     -230.915    -771.506     -79.011
  H     -233.289    -771.050     -79.515
  H     -233.199    -773.303     -69.786
  H     -234.370    -773.212     -71.111
  H     -232.895    -772.640     -80.132
  P     -230.728    -775.510     -79.345
  C     -229.902    -776.637     -77.132
  O     -229.870    -776.602     -78.537
  O     -230.628    -775.621     -80.830
  O     -232.200    -775.708     -78.762
  H     -232.237    -775.841     -77.794
  H     -229.439    -777.567     -76.789
  H     -230.933    -776.602     -76.763
  H     -229.334    -775.791     -76.728
  H     -236.584    -772.010     -82.105
  H     -235.688    -770.792     -81.229
  H     -237.315    -771.202     -80.739

 3  4  5  6  7  8  9  10  11  12  22  25  29  30  31  32 0
 6-311+G(2d,p)
 ****
 33  36  37 0
 6-311+G(2d,p)
 ****
 1  2  13  14  15  16  17  18  19  20  21  23  24  26 0
 3-21G
 ****
 27  28  34  35  38  39  40  41  42  43  44  45  46  47  48 0
 3-21G
 ****


