%nproc=1
%NoSave
%Mem=1900MB
#P OB98/GEN NMR

erre ene a

0 1
  C      185.074       0.926     -68.991
  O      183.975       1.797     -68.813
  H      185.683       0.938     -68.084
  H      185.684       1.272     -69.830
  H      184.734      -0.098     -69.174
  P      182.781       1.685     -69.879
  C      180.896      -0.049     -70.310
  O      182.157       0.214     -69.712
  C      180.799      -1.517     -70.717
  O      181.696      -1.796     -71.814
  C      181.158      -2.501     -69.607
  O      180.055      -2.742     -68.745
  C      181.492      -3.738     -70.426
  O      180.270      -4.369     -70.871
  C      182.235      -3.135     -71.626
  N      186.596      -5.722     -71.520
  C      185.299      -6.178     -71.653
  N      185.141      -7.515     -71.766
  N      184.248      -5.397     -71.669
  C      184.557      -4.086     -71.523
  C      185.801      -3.515     -71.376
  C      186.952      -4.387     -71.377
  O      188.124      -4.032     -71.272
  N      185.718      -2.153     -71.254
  C      184.425      -1.904     -71.303
  N      183.676      -3.043     -71.462
  O      183.563       1.611     -71.277
  O      181.805       2.812     -69.863
  H      179.903      -3.812     -71.581
  H      183.515       2.484     -71.711
  H      187.367      -6.367     -71.503
  H      183.981      -0.920     -71.236
  H      182.054      -3.695     -72.550
  H      182.043      -4.485     -69.853
  H      185.902      -8.173     -71.740
  H      182.047      -2.178     -69.051
  H      184.197      -7.871     -71.868
  H      179.777      -1.698     -71.077
  H      180.784       0.583     -71.198
  H      180.104       0.193     -69.594
  P      180.354      -3.073     -67.203
  C      181.117      -1.646     -65.176
  O      181.113      -1.796     -66.590
  O      181.505      -4.181     -67.302
  O      179.187      -3.568     -66.421
  H      181.160      -5.046     -67.002
  H      181.655      -0.759     -64.913
  H      181.590      -2.495     -64.729
  H      180.110      -1.571     -64.822

 6  7  8  9  10  11  12  13  14  15  26  29  33  34 0
 6-311+G(2d,p)
 ****
 36  38  39  40  41 0
 6-311+G(2d,p)
 ****
 1  2  3  4  5  16  17  18  19  20  21  22  23  24  25 0
 3-21G
 ****
 27  28  30  31  32  35  37  42  43  44  45  46  47 0
 3-21G
 ****
 48  49 0
 3-21G
 ****


