%nproc=1
%NoSave
%Mem=1900MB
#P OB98/GEN NMR

erre ene a

0 1
  C     -244.797     -79.447    -162.320
  O     -244.764     -78.032    -162.311
  P     -244.746     -77.314    -160.868
  C     -247.186     -76.407    -160.612
  O     -246.242     -77.418    -160.299
  C     -248.230     -76.311    -159.499
  O     -249.181     -77.387    -159.614
  C     -247.653     -76.398    -158.092
  O     -247.142     -75.145    -157.686
  C     -248.869     -76.856    -157.295
  O     -249.732     -75.743    -156.985
  C     -249.545     -77.826    -158.273
  N     -250.396     -81.997    -155.543
  C     -250.833     -80.699    -155.345
  N     -251.653     -80.497    -154.291
  N     -250.500     -79.694    -156.112
  C     -249.666     -80.043    -157.122
  C     -249.156     -81.285    -157.409
  C     -249.570     -82.398    -156.585
  O     -249.291     -83.577    -156.773
  N     -248.323     -81.247    -158.500
  C     -248.359     -79.985    -158.884
  N     -249.176     -79.216    -158.094
  O     -244.576     -75.767    -161.239
  O     -243.689     -77.805    -159.926
  H     -250.100     -75.392    -157.813
  H     -243.641     -75.491    -161.147
  H     -250.699     -82.730    -154.927
  H     -247.832     -79.587    -159.736
  H     -250.642     -77.777    -158.208
  H     -248.589     -77.308    -156.340
  H     -251.932     -81.214    -153.644
  H     -246.871     -77.171    -158.048
  H     -251.983     -79.547    -154.125
  H     -248.774     -75.367    -159.632
  H     -247.680     -76.653    -161.559
  H     -246.662     -75.450    -160.735
  P     -245.929     -75.141    -156.636
  C     -247.579     -74.672    -154.685
  O     -246.543     -75.492    -155.200
  O     -245.542     -73.590    -156.524
  O     -244.752     -75.965    -157.052
  H     -244.575     -73.499    -156.414
  H     -248.220     -75.286    -154.042
  H     -248.187     -74.242    -155.488
  H     -247.140     -73.867    -154.092
  H     -244.806     -79.797    -163.331
  H     -245.678     -79.786    -161.817
  H     -243.932     -79.827    -161.819

 3  4  5  6  7  8  9  10  11  12  23  26  30  31 0
 6-311+G(2d,p)
 ****
 33  35  36  37  38 0
 6-311+G(2d,p)
 ****
 1  2  13  14  15  16  17  18  19  20  21  22  24  25 0
 3-21G
 ****
 27  28  29  32  34  39  40  41  42  43  44  45  46  47  48  49 0
 3-21G
 ****


