%nproc=1
%NoSave
%Mem=1900MB
#P OB98/GEN NMR

erre ene a

0 1
  C      753.556     439.652      59.345
  O      754.009     440.033      60.633
  P      755.168     441.131      60.824
  C      753.555     443.147      60.699
  O      754.629     442.449      60.099
  C      753.276     444.453      59.953
  O      752.179     445.140      60.610
  C      754.469     445.420      59.904
  O      754.415     446.096      58.641
  C      754.169     446.378      61.035
  O      754.838     447.626      60.892
  C      752.641     446.465      60.950
  N      752.034     446.930      62.195
  C      752.344     448.222      62.621
  O      753.122     448.929      61.987
  N      751.759     448.683      63.774
  C      751.011     447.902      64.478
  N      750.405     448.432      65.580
  C      750.739     446.499      64.119
  C      751.260     446.088      62.965
  O      756.526     440.685      60.390
  O      755.077     441.536      62.368
  H      755.792     447.480      61.015
  H      755.585     440.931      62.959
  H      750.131     445.874      64.756
  H      751.099     445.084      62.609
  H      752.346     447.118      60.122
  H      754.489     445.939      61.986
  H      755.431     444.912      60.001
  H      752.943     444.200      58.938
  H      750.467     449.436      65.698
  H      753.836     443.387      61.733
  H      749.576     448.006      65.980
  H      752.666     442.508      60.727
  P      755.757     446.774      58.087
  C      755.829     445.079      56.126
  O      756.528     445.701      57.182
  O      756.673     446.811      59.408
  O      755.624     448.158      57.529
  H      757.320     447.536      59.332
  H      756.510     444.388      55.615
  H      755.487     445.824      55.404
  H      754.978     444.513      56.511
  H      752.787     438.914      59.441
  H      754.372     439.245      58.786
  H      753.167     440.509      58.836

 3  4  5  6  7  8  9  10  11  12  13  23  27  28  29  30  32 0
 6-311+G(2d,p)
 ****
 34  35 0
 6-311+G(2d,p)
 ****
 1  2  14  15  16  17  18  19  20  21  22  24  25  26 0
 3-21G
 ****
 31  33  36  37  38  39  40  41  42  43  44  45  46 0
 3-21G
 ****


