%nproc=1
%NoSave
%Mem=1900MB
#P OB98/GEN NMR

erre ene a

0 1
  C      669.989    -458.480    -832.122
  O      669.630    -457.645    -833.209
  H      669.234    -459.252    -832.011
  H      670.023    -457.884    -831.205
  H      670.961    -458.950    -832.289
  P      670.732    -456.655    -833.814
  C      670.188    -454.443    -832.580
  O      671.064    -455.560    -832.685
  C      670.637    -453.492    -831.471
  O      671.837    -452.786    -831.896
  C      669.555    -452.431    -831.207
  O      669.583    -451.956    -829.869
  C      669.967    -451.293    -832.136
  O      669.441    -450.031    -831.748
  C      671.487    -451.393    -832.058
  N      672.820    -447.243    -834.730
  C      672.004    -447.337    -833.617
  N      671.447    -446.201    -833.171
  N      671.734    -448.488    -833.014
  C      672.302    -449.557    -833.605
  C      673.111    -449.585    -834.733
  C      673.422    -448.328    -835.366
  O      674.124    -448.181    -836.362
  N      673.475    -450.875    -835.045
  C      672.883    -451.614    -834.141
  N      672.170    -450.858    -833.230
  O      669.915    -455.788    -834.897
  O      671.936    -457.306    -834.433
  H      668.487    -450.144    -831.609
  H      670.504    -455.446    -835.577
  H      672.989    -446.350    -835.146
  H      672.941    -452.702    -834.084
  H      671.856    -450.845    -831.186
  H      669.572    -451.518    -833.135
  H      671.474    -445.341    -833.708
  H      668.566    -452.804    -831.438
  H      670.624    -446.283    -832.561
  H      670.907    -454.050    -830.569
  H      669.180    -454.842    -832.356
  H      670.123    -453.922    -833.535
  P      668.458    -452.519    -828.863
  C      666.237    -451.980    -830.178
  O      667.190    -452.954    -829.758
  O      667.962    -451.212    -828.093
  O      668.951    -453.577    -827.934
  H      668.308    -451.200    -827.181
  H      665.474    -452.455    -830.758
  H      666.725    -451.236    -830.772
  H      665.797    -451.518    -829.319

 6  7  8  9  10  11  12  13  14  15  26  29  33  34 0
 6-311+G(2d,p)
 ****
 36  38  39  40  41 0
 6-311+G(2d,p)
 ****
 1  2  3  4  5  16  17  18  19  20  21  22  23  24  25 0
 3-21G
 ****
 27  28  30  31  32  35  37  42  43  44  45  46  47 0
 3-21G
 ****
 48  49 0
 3-21G
 ****


