%nproc=1
%NoSave
%Mem=1900MB
#P OB98/GEN NMR

erre ene a

0 1
  C     1058.579     204.492     363.320
  O     1058.566     203.327     364.126
  H     1058.367     205.353     363.951
  H     1057.811     204.426     362.549
  H     1059.560     204.624     362.857
  P     1058.971     201.945     363.413
  C     1061.348     201.587     364.414
  O     1060.573     201.958     363.285
  C     1062.840     201.612     364.050
  O     1063.117     200.499     363.164
  C     1063.256     202.899     363.326
  O     1064.568     203.259     363.746
  C     1063.284     202.480     361.865
  O     1064.112     203.292     361.050
  C     1063.764     201.032     361.978
  N     1063.422     200.233     360.803
  C     1064.141     200.474     359.636
  O     1065.084     201.257     359.549
  N     1063.731     199.784     358.533
  C     1062.686     198.901     358.472
  O     1062.361     198.311     357.453
  C     1061.967     198.678     359.732
  C     1062.360     199.350     360.821
  O     1058.477     202.154     361.902
  O     1058.404     200.712     364.032
  H     1057.562     201.843     361.793
  H     1064.931     203.485     361.560
  H     1064.245     199.942     357.684
  H     1061.129     198.005     359.723
  H     1061.842     199.233     361.771
  H     1064.837     201.000     362.154
  H     1062.268     202.517     361.449
  H     1062.574     203.730     363.496
  H     1063.420     201.459     364.959
  H     1061.063     200.570     364.720
  H     1061.144     202.282     365.233
  P     1064.711     204.505     364.760
  C     1066.374     203.224     366.328
  O     1065.110     203.862     366.181
  O     1063.186     204.926     364.931
  O     1065.635     205.560     364.258
  H     1062.562     204.187     364.941
  H     1066.474     202.856     367.328
  H     1067.154     203.928     366.127
  H     1066.444     202.408     365.639

 6  7  8  9  10  11  12  13  14  15  16  27  31  32  33  34  35 0
 6-311+G(2d,p)
 ****
 36  37 0
 6-311+G(2d,p)
 ****
 1  2  3  4  5  17  18  19  20  21  22  23  24  25 0
 3-21G
 ****
 26  28  29  30  38  39  40  41  42  43  44  45 0
 3-21G
 ****


