%nproc=1
%NoSave
%Mem=1900MB
#P OB98/GEN NMR

erre ene a

0 1
  C      -50.805     -84.792     285.334
  O      -51.936     -84.078     285.792
  H      -50.524     -85.556     286.063
  H      -51.055     -85.281     284.388
  H      -49.967     -84.109     285.168
  P      -51.770     -83.303     287.187
  C      -54.283     -83.418     287.790
  O      -53.175     -82.582     287.486
  C      -55.368     -82.612     288.500
  O      -54.882     -82.265     289.824
  C      -55.757     -81.312     287.778
  O      -57.180     -81.221     287.637
  C      -55.292     -80.213     288.716
  O      -56.146     -79.074     288.704
  C      -55.283     -80.911     290.070
  N      -54.220     -76.503     292.402
  C      -55.356     -76.961     291.833
  N      -55.604     -78.180     291.315
  C      -54.533     -78.981     291.456
  C      -53.315     -78.665     292.034
  C      -53.170     -77.349     292.505
  N      -51.993     -76.865     293.035
  N      -52.454     -79.746     291.989
  C      -53.125     -80.686     291.356
  N      -54.381     -80.263     291.000
  O      -50.792     -82.086     286.816
  O      -51.214     -84.130     288.295
  H      -57.033     -79.374     288.977
  H      -49.978     -82.166     287.344
  H      -56.176     -76.249     291.780
  H      -52.741     -81.661     291.087
  H      -56.284     -80.934     290.522
  H      -54.283     -79.896     288.422
  H      -55.289     -81.220     286.793
  H      -56.248     -83.251     288.639
  H      -53.958     -84.234     288.446
  H      -51.939     -75.881     293.238
  H      -51.174     -77.459     293.010
  H      -54.671     -83.850     286.862
  P      -57.796     -81.790     286.263
  C      -59.294     -79.711     285.827
  O      -59.240     -81.116     286.048
  O      -58.128     -83.315     286.618
  O      -56.866     -81.690     285.102
  H      -57.675     -83.909     285.990
  H      -60.313     -79.409     285.702
  H      -58.739     -79.467     284.945
  H      -58.871     -79.201     286.667

 6  7  8  9  10  11  12  13  14  15  25  28  32  33  34  35 0
 6-311+G(2d,p)
 ****
 36  39  40 0
 6-311+G(2d,p)
 ****
 1  2  3  4  5  16  17  18  19  20  21  22  23  24 0
 3-21G
 ****
 26  27  29  30  31  37  38  41  42  43  44  45  46  47  48 0
 3-21G
 ****


