%nproc=1
%NoSave
%Mem=1900MB
#P OB98/GEN NMR

erre ene a

0 1
  C       34.349     -84.704       2.551
  O       33.800     -83.435       2.847
  H       33.695     -85.213       1.838
  H       34.418     -85.309       3.460
  H       35.341     -84.591       2.106
  P       34.567     -82.571       3.965
  C       33.433     -84.043       5.798
  O       34.642     -83.568       5.223
  C       33.744     -85.111       6.841
  O       34.258     -86.304       6.210
  C       34.804     -84.699       7.858
  O       34.296     -83.848       8.872
  C       35.198     -86.059       8.405
  O       34.180     -86.528       9.310
  C       35.226     -86.906       7.112
  N       36.549     -86.959       6.488
  C       37.263     -88.154       6.630
  O       36.787     -89.097       7.263
  N       38.520     -88.243       6.080
  C       39.017     -87.233       5.435
  N       40.270     -87.373       4.923
  C       38.292     -85.963       5.247
  C       37.080     -85.895       5.793
  O       33.471     -81.502       4.433
  O       35.872     -81.976       3.553
  H       34.088     -85.852      10.007
  H       33.807     -80.999       5.214
  H       38.753     -85.145       4.710
  H       36.490     -84.990       5.697
  H       34.890     -87.932       7.310
  H       36.138     -86.042       8.960
  H       35.677     -84.251       7.371
  H       32.801     -85.385       7.337
  H       40.766     -88.231       5.121
  H       32.811     -84.461       5.001
  H       40.804     -86.589       4.568
  H       32.894     -83.216       6.275
  P       35.313     -82.804       9.545
  C       35.549     -84.249      11.690
  O       36.205     -83.627      10.595
  O       34.361     -81.926      10.483
  O       36.083     -81.958       8.578
  H       34.625     -80.987      10.475
  H       36.270     -84.755      12.297
  H       34.833     -84.955      11.323
  H       35.049     -83.506      12.275

 6  7  8  9  10  11  12  13  14  15  16  26  30  31  32  33  35 0
 6-311+G(2d,p)
 ****
 37  38 0
 6-311+G(2d,p)
 ****
 1  2  3  4  5  17  18  19  20  21  22  23  24  25 0
 3-21G
 ****
 27  28  29  34  36  39  40  41  42  43  44  45  46 0
 3-21G
 ****


