%nproc=1
%NoSave
%Mem=1900MB
#P OB98/GEN NMR

erre ene a

0 1
  C     -197.294     333.169     210.865
  O     -197.360     334.017     209.738
  H     -196.929     333.744     211.718
  H     -196.601     332.345     210.674
  H     -198.285     332.772     211.105
  P     -197.963     333.387     208.390
  C     -196.389     334.522     206.668
  O     -197.696     334.461     207.226
  C     -196.326     335.570     205.561
  O     -197.387     335.305     204.598
  C     -196.501     337.020     206.047
  O     -195.678     337.862     205.236
  C     -197.956     337.313     205.710
  O     -198.224     338.707     205.611
  C     -198.089     336.545     204.396
  N     -202.091     338.670     202.209
  C     -200.805     339.142     202.377
  N     -200.535     340.370     201.882
  N     -199.857     338.464     202.970
  C     -200.255     337.243     203.384
  C     -201.493     336.657     203.289
  C     -202.541     337.428     202.651
  O     -203.704     337.071     202.492
  N     -201.503     335.409     203.858
  C     -200.267     335.237     204.294
  N     -199.475     336.319     204.031
  O     -199.543     333.478     208.634
  O     -197.525     331.992     208.084
  H     -199.168     338.817     205.366
  H     -199.874     332.646     209.018
  H     -202.785     339.236     201.760
  H     -199.905     334.357     204.809
  H     -197.622     337.075     203.556
  H     -198.614     336.891     206.479
  H     -201.207     340.928     201.370
  H     -196.266     337.174     207.104
  H     -199.591     340.716     201.955
  H     -195.374     335.453     205.028
  H     -196.136     333.540     206.250
  H     -195.674     334.767     207.459
  P     -194.292     338.385     205.856
  C     -194.086     340.836     205.003
  O     -193.679     339.484     204.859
  O     -193.316     337.132     205.647
  O     -194.375     338.787     207.292
  H     -192.622     337.138     206.335
  H     -193.591     341.437     204.269
  H     -193.829     341.184     205.982
  H     -195.145     340.906     204.867

 6  7  8  9  10  11  12  13  14  15  26  29  33  34 0
 6-311+G(2d,p)
 ****
 36  38  39  40  41 0
 6-311+G(2d,p)
 ****
 1  2  3  4  5  16  17  18  19  20  21  22  23  24  25 0
 3-21G
 ****
 27  28  30  31  32  35  37  42  43  44  45  46  47 0
 3-21G
 ****
 48  49 0
 3-21G
 ****


