%nproc=1
%NoSave
%Mem=1900MB
#P OB98/GEN NMR

erre ene a

0 1
  C     -107.806     286.161    -468.210
  O     -107.398     286.802    -469.407
  P     -106.181     287.836    -469.321
  C     -104.225     286.106    -469.393
  O     -104.946     287.067    -468.636
  C     -102.945     286.737    -469.947
  O     -103.272     287.707    -470.973
  C     -102.144     287.497    -468.899
  O     -101.381     286.621    -468.091
  C     -101.284     288.412    -469.773
  O     -100.119     287.718    -470.249
  C     -102.247     288.724    -470.942
  N     -102.825     290.064    -470.847
  C     -102.349     290.999    -471.765
  O     -101.474     290.734    -472.594
  N     -102.875     292.250    -471.670
  C     -103.772     292.683    -470.733
  O     -104.167     293.836    -470.657
  C     -104.222     291.657    -469.769
  C     -103.732     290.423    -469.866
  O     -106.643     288.882    -468.205
  O     -105.840     288.512    -470.609
  H      -99.682     287.337    -469.463
  H     -106.322     289.778    -468.431
  H     -102.562     292.938    -472.335
  H     -104.933     291.960    -469.010
  H     -104.038     289.657    -469.160
  H     -101.719     288.646    -471.896
  H     -100.937     289.291    -469.236
  H     -102.815     288.118    -468.288
  H     -102.335     285.947    -470.402
  H     -104.850     285.747    -470.217
  H     -103.984     285.247    -468.750
  P     -100.898     287.186    -466.665
  C     -103.309     286.727    -465.755
  O     -102.246     287.640    -465.920
  O     -100.186     288.541    -467.109
  O     -100.017     286.231    -465.922
  H     -100.607     288.940    -467.884
  H     -102.939     285.716    -465.587
  H     -103.937     286.742    -466.647
  H     -103.909     287.036    -464.892
  H     -108.623     285.503    -468.419
  H     -108.114     286.898    -467.498
  H     -106.988     285.599    -467.810

 3  4  5  6  7  8  9  10  11  12  13  23  28  29  30  31  32 0
 6-311+G(2d,p)
 ****
 33  34 0
 6-311+G(2d,p)
 ****
 1  2  14  15  16  17  18  19  20  21  22  24  25  26 0
 3-21G
 ****
 27  35  36  37  38  39  40  41  42  43  44  45 0
 3-21G
 ****


