%nproc=1
%NoSave
%Mem=1900MB
#P OB98/GEN NMR

erre ene a

0 1
  C      224.641      88.493    -232.116
  O      223.277      88.403    -231.735
  P      222.162      88.382    -232.887
  C      222.574      90.896    -233.418
  O      222.504      89.570    -233.913
  C      222.160      91.896    -234.505
  O      221.927      93.200    -233.894
  C      223.199      92.083    -235.620
  O      222.489      92.325    -236.842
  C      223.916      93.350    -235.184
  O      224.613      93.990    -236.242
  C      222.730      94.154    -234.626
  N      223.144      95.271    -233.779
  C      222.761      96.549    -234.176
  O      222.096      96.782    -235.188
  N      223.219      97.578    -233.397
  C      224.080      97.466    -232.339
  O      224.545      98.443    -231.758
  C      224.454      96.093    -231.969
  C      223.982      95.077    -232.690
  O      220.849      88.898    -232.133
  O      221.955      87.047    -233.531
  H      223.953      94.264    -236.906
  H      220.276      88.138    -231.900
  H      222.945      98.512    -233.664
  H      225.118      95.969    -231.126
  H      224.256      94.053    -232.453
  H      222.110      94.525    -235.447
  H      224.634      93.106    -234.396
  H      223.877      91.231    -235.733
  H      221.198      91.560    -234.931
  H      223.603      91.114    -233.117
  H      221.936      90.992    -232.535
  P      222.985      91.563    -238.167
  C      223.984      93.690    -239.312
  O      224.206      92.411    -238.760
  O      221.773      91.884    -239.167
  O      223.221      90.095    -237.959
  H      221.479      92.809    -239.114
  H      223.177      94.222    -238.788
  H      223.715      93.595    -240.370
  H      224.902      94.281    -239.233
  H      225.256      88.496    -231.241
  H      224.799      89.397    -232.666
  H      224.896      87.654    -232.729

 3  4  5  6  7  8  9  10  11  12  13  23  28  29  30  31  32 0
 6-311+G(2d,p)
 ****
 33  34 0
 6-311+G(2d,p)
 ****
 1  2  14  15  16  17  18  19  20  21  22  24  25  26 0
 3-21G
 ****
 27  35  36  37  38  39  40  41  42  43  44  45 0
 3-21G
 ****


