%nproc=1
%NoSave
%Mem=1900MB
#P OB98/GEN NMR

erre ene a

0 1
  C       33.525     196.542    -381.671
  O       33.871     196.391    -380.305
  H       33.169     197.564    -381.829
  H       32.727     195.849    -381.944
  H       34.400     196.373    -382.307
  P       34.419     194.969    -379.815
  C       36.061     195.987    -378.097
  O       34.907     195.181    -378.300
  C       36.390     196.065    -376.610
  O       35.545     197.044    -375.956
  C       36.179     194.751    -375.854
  O       37.290     193.890    -376.041
  C       36.051     195.269    -374.424
  O       37.358     195.600    -373.917
  C       35.223     196.548    -374.631
  N       30.904     198.025    -372.396
  C       32.207     198.417    -372.158
  N       32.394     199.302    -371.151
  N       33.239     197.976    -372.836
  C       32.912     197.042    -373.757
  C       31.660     196.556    -374.074
  C       30.521     197.099    -373.365
  O       29.348     196.791    -373.550
  N       31.725     195.567    -375.025
  C       33.012     195.482    -375.313
  N       33.775     196.348    -374.556
  O       35.449     194.314    -380.692
  O       33.100     194.074    -379.659
  H       37.941     194.853    -374.154
  H       32.913     193.576    -380.480
  H       30.163     198.396    -371.828
  H       33.443     194.821    -376.052
  H       35.479     197.331    -373.914
  H       35.610     194.544    -373.747
  H       31.693     199.458    -370.437
  H       35.224     194.271    -376.134
  H       33.345     199.574    -370.935
  H       37.431     196.416    -376.506
  H       35.842     196.985    -378.491
  H       36.911     195.575    -378.641
  P       37.135     192.294    -375.914
  C       38.448     191.922    -378.107
  O       38.393     191.691    -376.699
  O       35.802     191.753    -376.346
  O       37.491     191.980    -374.390
  H       36.712     192.024    -373.774
  H       39.331     191.471    -378.508
  H       38.469     192.975    -378.295
  H       37.585     191.493    -378.573

 6  7  8  9  10  11  12  13  14  15  26  29  33  34 0
 6-311+G(2d,p)
 ****
 36  38  39  40  41 0
 6-311+G(2d,p)
 ****
 1  2  3  4  5  16  17  18  19  20  21  22  23  24  25 0
 3-21G
 ****
 27  28  30  31  32  35  37  42  43  44  45  46  47 0
 3-21G
 ****
 48  49 0
 3-21G
 ****


