%nproc=1
%NoSave
%Mem=1900MB
#P OB98/GEN NMR

erre ene a

0 1
  C      115.234     109.817    -318.359
  O      115.317     111.067    -317.663
  P      116.692     111.365    -316.878
  C      115.396     111.326    -314.634
  O      116.336     112.013    -315.454
  C      115.135     112.073    -313.318
  O      116.369     112.295    -312.590
  C      114.466     113.439    -313.513
  O      113.601     113.652    -312.395
  C      115.636     114.404    -313.423
  O      115.192     115.717    -313.105
  C      116.493     113.709    -312.344
  N      117.885     114.151    -312.352
  C      118.118     115.527    -312.359
  O      117.176     116.321    -312.427
  N      119.415     115.984    -312.326
  C      120.396     115.135    -312.346
  N      121.656     115.641    -312.313
  C      120.193     113.667    -312.398
  C      118.937     113.254    -312.391
  O      117.331     112.582    -317.702
  O      117.619     110.194    -316.835
  H      114.866     115.714    -312.176
  H      118.262     112.392    -317.917
  H      121.043     112.995    -312.427
  H      118.686     112.203    -312.432
  H      116.084     113.912    -311.340
  H      116.177     114.438    -314.378
  H      113.900     113.517    -314.441
  H      114.494     111.440    -312.693
  H      121.753     116.649    -312.270
  H      115.770     110.327    -314.411
  H      122.487     115.076    -312.326
  H      114.472     111.185    -315.198
  P      112.081     113.173    -312.506
  C      111.101     115.472    -311.899
  O      111.273     114.121    -311.492
  O      112.121     111.798    -311.665
  O      111.495     112.972    -313.860
  H      111.253     111.357    -311.720
  H      110.435     115.969    -311.191
  H      110.652     115.516    -312.896
  H      112.066     115.989    -311.896
  H      114.280     109.737    -318.837
  H      115.353     109.013    -317.663
  H      116.007     109.767    -319.097

 3  4  5  6  7  8  9  10  11  12  13  21  23  27  28  29  30  32 0
 6-311+G(2d,p)
 ****
 34  35 0
 6-311+G(2d,p)
 ****
 1  2  14  15  16  17  18  19  20  22  24  25  26 0
 3-21G
 ****
 31  33  36  37  38  39  40  41  42  43  44  45  46 0
 3-21G
 ****


