%nproc=1
%NoSave
%Mem=1900MB
#P OB98/GEN NMR

erre ene a

0 1
  C     -259.168     -12.606     -53.994
  O     -260.117     -13.634     -53.786
  H     -258.162     -13.031     -53.909
  H     -259.286     -11.826     -53.234
  H     -259.287     -12.174     -54.992
  P     -261.663     -13.225     -53.912
  C     -263.245     -11.601     -52.629
  O     -261.918     -12.084     -52.809
  C     -263.262     -10.526     -51.543
  O     -262.136      -9.634     -51.730
  C     -264.497      -9.636     -51.565
  O     -265.617     -10.261     -50.961
  C     -263.998      -8.417     -50.800
  O     -264.091      -8.609     -49.384
  C     -262.524      -8.339     -51.221
  N     -260.094      -3.960     -52.181
  C     -260.079      -4.787     -51.110
  N     -260.745      -5.951     -50.939
  C     -261.477      -6.237     -52.033
  C     -261.595      -5.491     -53.192
  C     -260.854      -4.297     -53.249
  N     -260.899      -3.436     -54.324
  N     -262.478      -6.092     -54.070
  C     -262.876      -7.189     -53.452
  N     -262.293      -7.320     -52.223
  O     -262.419     -14.505     -53.314
  O     -262.126     -12.892     -55.289
  H     -265.040      -8.718     -49.176
  H     -262.677     -15.102     -54.044
  H     -259.454      -4.468     -50.280
  H     -263.589      -7.905     -53.848
  H     -261.864      -8.118     -50.372
  H     -264.580      -7.524     -51.044
  H     -264.731      -9.331     -52.594
  H     -263.148     -11.015     -50.568
  H     -263.892     -12.429     -52.327
  H     -263.605     -11.194     -53.582
  H     -260.355      -2.587     -54.285
  H     -261.543      -3.626     -55.074
  P     -267.080      -9.705     -51.298
  C     -268.606      -7.776     -50.452
  O     -267.357      -8.443     -50.346
  O     -268.045     -10.844     -50.715
  O     -267.330      -9.452     -52.751
  H     -268.361     -11.424     -51.433
  H     -268.636      -6.963     -49.757
  H     -269.397      -8.463     -50.233
  H     -268.726      -7.400     -51.446

 6  7  8  9  10  11  12  13  14  15  25  28  32  33  34  35 0
 6-311+G(2d,p)
 ****
 36  37  40 0
 6-311+G(2d,p)
 ****
 1  2  3  4  5  16  17  18  19  20  21  22  23  24 0
 3-21G
 ****
 26  27  29  30  31  38  39 41  42  43  44  45  46  47  48 0
 3-21G
 ****


