%nproc=1
%NoSave
%Mem=1900MB
#P OB98/GEN NMR

erre ene a

0 1
  C        0.912      -9.399     -11.596
  O        1.604      -8.778     -12.660
  H        1.117     -10.473     -11.624
  H       -0.163      -9.244     -11.713
  H        1.244      -9.001     -10.634
  P        1.604      -7.174     -12.680
  C       -0.572      -7.292     -14.089
  O        0.091      -6.722     -12.972
  C       -2.054      -6.929     -14.064
  O       -2.678      -7.445     -12.868
  C       -2.332      -5.429     -14.076
  O       -2.282      -4.893     -15.392
  C       -3.748      -5.404     -13.526
  O       -4.678      -5.792     -14.557
  C       -3.681      -6.482     -12.437
  N       -5.257      -5.805      -7.668
  C       -5.917      -6.352      -8.752
  N       -7.183      -6.769      -8.537
  N       -5.389      -6.474      -9.941
  C       -4.121      -6.004     -10.012
  C       -3.361      -5.444      -9.010
  C       -3.955      -5.322      -7.698
  O       -3.407      -4.867      -6.699
  N       -2.116      -5.096      -9.460
  C       -2.126      -5.425     -10.736
  N       -3.323      -5.975     -11.123
  O        2.363      -6.820     -14.047
  O        2.258      -6.519     -11.512
  H       -4.687      -5.072     -15.213
  H        2.895      -6.012     -13.911
  H       -5.714      -5.725      -6.777
  H       -1.299      -5.291     -11.418
  H       -4.628      -7.022     -12.326
  H       -4.048      -4.414     -13.181
  H       -7.666      -6.659      -7.659
  H       -1.665      -4.891     -13.393
  H       -7.676      -7.203      -9.307
  H       -2.535      -7.417     -14.921
  H       -0.467      -8.381     -14.054
  H       -0.108      -6.919     -15.007
  P       -1.758      -3.384     -15.560
  C       -4.179      -2.469     -15.779
  O       -2.959      -2.451     -15.047
  O       -1.777      -3.171     -17.146
  O       -0.417      -3.112     -14.972
  H       -1.157      -2.459     -17.395
  H       -4.880      -1.802     -15.321
  H       -4.579      -3.461     -15.781
  H       -3.995      -2.157     -16.786

 6  7  8  9  10  11  12  13  14  15  26  29  33  34 0
 6-311+G(2d,p)
 ****
 36  38  39  40  41 0
 6-311+G(2d,p)
 ****
 1  2  3  4  5  16  17  18  19  20  21  22  23  24  25 0
 3-21G
 ****
 27  28  30  31  32  35  37  42  43  44  45  46  47 0
 3-21G
 ****
 48  49 0
 3-21G
 ****


