%nproc=1
%NoSave
%Mem=1900MB
#P OB98/GEN NMR

erre ene a

0 1
  C       36.988      70.462     137.449
  O       36.912      71.833     137.120
  H       37.635      69.964     136.721
  H       35.998      70.002     137.409
  H       37.421      70.332     138.446
  P       35.967      72.784     137.998
  C       34.322      73.491     136.138
  O       35.379      73.897     137.003
  C       34.793      73.522     134.680
  O       35.696      72.405     134.485
  C       33.632      73.382     133.684
  O       33.610      74.415     132.702
  C       33.762      71.945     133.194
  O       33.231      71.710     131.907
  C       35.264      71.668     133.327
  N       35.595      70.251     133.464
  C       36.008      69.579     132.317
  O       36.140      70.088     131.207
  N       36.291      68.247     132.484
  C       36.197      67.543     133.646
  O       36.470      66.353     133.734
  C       35.734      68.304     134.817
  C       35.457      69.602     134.674
  O       36.575      73.323     139.249
  O       34.688      71.873     138.313
  H       33.083      70.747     131.817
  H       34.741      71.541     139.228
  H       36.603      67.754     131.663
  H       35.637      67.774     135.754
  H       35.114      70.193     135.519
  H       35.802      72.052     132.459
  H       33.217      71.295     133.890
  H       32.668      73.497     134.192
  H       35.364      74.442     134.511
  H       33.486      74.182     136.282
  H       33.999      72.479     136.403
  P       32.481      75.537     132.589
  C       32.428      75.443     129.969
  O       32.598      76.219     131.146
  O       32.361      76.452     133.761
  O       31.117      74.681     132.495
  H       30.422      75.214     132.934
  H       32.542      76.070     129.109
  H       31.450      75.008     129.967
  H       33.164      74.667     129.944

 6  7  8  9  10  11  12  13  14  15  16  26  31  32  33  34  35 0
 6-311+G(2d,p)
 ****
 36  37 0
 6-311+G(2d,p)
 ****
 1  2  3  4  5  17  18  19  20  21  22  23  24  25 0
 3-21G
 ****
 27  28  29  30  38  39  40  41  42  43  44  45 0
 3-21G
 ****


