%nproc=1
%NoSave
%Mem=1900MB
#P OB98/GEN NMR

erre ene a

0 1
  C      513.784     546.624     568.155
  O      514.925     547.412     567.848
  P      514.724     548.656     566.851
  C      514.671     548.847     564.246
  O      514.427     548.023     565.392
  C      514.359     548.093     562.959
  O      515.304     546.995     562.800
  C      512.945     547.521     562.892
  O      512.477     547.635     561.550
  C      513.136     546.058     563.207
  O      512.088     545.242     562.683
  C      514.534     545.800     562.597
  N      515.188     544.619     563.178
  C      514.638     543.379     562.893
  O      513.575     543.298     562.253
  N      515.235     542.244     563.383
  C      516.258     542.365     564.185
  N      516.826     541.217     564.632
  C      516.810     543.673     564.599
  C      516.246     544.733     564.051
  O      516.202     549.243     566.708
  O      513.747     549.678     567.322
  H      512.284     544.309     562.914
  H      516.178     550.208     566.580
  H      517.637     543.712     565.301
  H      516.596     545.742     564.275
  H      514.442     545.622     561.506
  H      513.174     545.897     564.303
  H      512.251     548.025     563.567
  H      514.529     548.776     562.105
  H      516.427     540.333     564.349
  H      515.726     549.124     564.239
  H      517.622     541.208     565.262
  H      514.070     549.751     564.322
  P      510.888     547.745     561.311
  C      509.079     546.090     560.528
  O      510.407     546.253     560.995
  O      510.831     548.426     559.846
  O      510.085     548.533     562.296
  H      509.904     548.602     559.605
  H      508.940     545.054     560.223
  H      508.891     546.755     559.665
  H      508.383     546.327     561.334
  H      514.063     545.837     568.824
  H      513.389     546.202     567.254
  H      513.040     547.239     568.617

 3  4  5  6  7  8  9  10  11  12  13  21  23  27  28  29  30  32 0
 6-311+G(2d,p)
 ****
 34  35 0
 6-311+G(2d,p)
 ****
 1  2  14  15  16  17  18  19  20  22  24  25  26 0
 3-21G
 ****
 31  33  36  37  38  39  40  41  42  43  44  45  46 0
 3-21G
 ****


