%nproc=1
%NoSave
%Mem=1900MB
#P OB98/GEN NMR

erre ene a

0 1
  C      -26.850     -36.149     -49.602
  O      -26.886     -34.975     -48.818
  H      -26.340     -35.928     -50.543
  H      -27.864     -36.491     -49.824
  H      -26.298     -36.933     -49.078
  P      -27.686     -35.054     -47.430
  C      -25.748     -35.893     -45.916
  O      -26.983     -36.196     -46.552
  C      -25.888     -36.094     -44.410
  O      -26.774     -35.088     -43.862
  C      -26.502     -37.429     -44.016
  O      -25.572     -38.498     -44.072
  C      -26.955     -37.130     -42.598
  O      -25.890     -37.305     -41.652
  C      -27.385     -35.655     -42.686
  N      -28.839     -35.515     -42.701
  C      -29.443     -35.362     -41.456
  O      -28.816     -35.341     -40.399
  N      -30.807     -35.273     -41.463
  C      -31.610     -35.371     -42.560
  O      -32.832     -35.339     -42.489
  C      -30.918     -35.549     -43.846
  C      -29.584     -35.617     -43.858
  O      -29.085     -35.705     -47.853
  O      -27.865     -33.747     -46.732
  H      -29.783     -35.024     -47.839
  H      -26.306     -37.260     -40.768
  H      -31.264     -35.160     -40.571
  H      -31.525     -35.633     -44.738
  H      -29.051     -35.759     -44.793
  H      -26.998     -35.091     -41.828
  H      -27.763     -37.793     -42.299
  H      -27.383     -37.639     -44.634
  H      -24.900     -35.971     -43.949
  H      -25.479     -34.851     -46.111
  H      -24.968     -36.540     -46.327
  P      -26.150     -39.981     -44.275
  C      -26.013     -39.587     -46.873
  O      -26.773     -40.008     -45.751
  O      -27.416     -39.939     -43.299
  O      -25.151     -41.046     -43.973
  H      -27.761     -39.035     -43.192
  H      -26.604     -39.681     -47.760
  H      -25.139     -40.198     -46.961
  H      -25.723     -38.565     -46.744

 6  7  8  9  10  11  12  13  14  15  16  27  31  32  33  34  35 0
 6-311+G(2d,p)
 ****
 36  37 0
 6-311+G(2d,p)
 ****
 1  2  3  4  5  17  18  19  20  21  22  23  24  25 0
 3-21G
 ****
 26  28  29  30  38  39  40  41  42  43  44  45 0
 3-21G
 ****


