%nproc=1
%NoSave
%Mem=1900MB
#P OB98/GEN NMR

erre ene a

0 1
  C     -340.572     -67.374    -413.289
  O     -339.684     -66.383    -412.809
  H     -341.019     -67.881    -412.429
  H     -340.024     -68.113    -413.880
  H     -341.371     -66.930    -413.888
  P     -338.995     -65.391    -413.863
  C     -336.774     -66.709    -413.884
  O     -337.874     -66.232    -414.648
  C     -335.745     -67.402    -414.788
  O     -335.154     -66.410    -415.667
  C     -334.610     -68.086    -414.021
  O     -334.254     -69.297    -414.685
  C     -333.468     -67.090    -414.117
  O     -332.192     -67.716    -414.004
  C     -333.723     -66.456    -415.484
  N     -329.479     -63.850    -416.337
  C     -329.721     -65.212    -416.411
  N     -328.677     -65.999    -416.745
  N     -330.887     -65.753    -416.174
  C     -331.847     -64.844    -415.876
  C     -331.736     -63.476    -415.770
  C     -330.432     -62.892    -416.008
  O     -330.155     -61.704    -415.940
  N     -332.931     -62.905    -415.420
  C     -333.768     -63.918    -415.317
  N     -333.154     -65.121    -415.573
  O     -338.510     -64.099    -413.284
  O     -340.118     -65.150    -414.974
  H     -331.519     -67.011    -414.096
  H     -340.515     -64.267    -414.884
  H     -328.555     -63.490    -416.514
  H     -334.816     -63.846    -415.061
  H     -333.292     -67.043    -416.308
  H     -333.557     -66.345    -413.315
  H     -327.753     -65.643    -416.965
  H     -334.883     -68.298    -412.983
  H     -328.831     -66.990    -416.839
  H     -336.274     -68.116    -415.427
  H     -337.152     -67.421    -413.144
  H     -336.306     -65.867    -413.360
  P     -335.188     -70.591    -414.503
  C     -334.414     -71.376    -412.182
  O     -335.476     -70.803    -412.937
  O     -334.742     -71.810    -415.235
  O     -336.614     -70.080    -415.052
  H     -337.068     -70.828    -415.491
  H     -334.714     -71.471    -411.159
  H     -333.552     -70.745    -412.244
  H     -334.178     -72.343    -412.575

 6  7  8  9  10  11  12  13  14  15  26  29  33  34 0
 6-311+G(2d,p)
 ****
 36  38  39  40  41 0
 6-311+G(2d,p)
 ****
 1  2  3  4  5  16  17  18  19  20  21  22  23  24  25 0
 3-21G
 ****
 27  28  30  31  32  35  37  42  43  44  45  46  47 0
 3-21G
 ****
 48  49 0
 3-21G
 ****


