%nproc=1
%NoSave
%Mem=1900MB
#P OB98/GEN NMR

erre ene a

0 1
  C     -310.208     814.725    -382.677
  O     -310.129     813.309    -382.784
  P     -308.866     812.563    -382.143
  C     -306.378     812.163    -382.826
  O     -307.611     812.825    -383.103
  C     -305.390     812.370    -383.972
  O     -305.881     811.687    -385.161
  C     -305.156     813.831    -384.345
  O     -303.790     813.963    -384.779
  C     -306.069     814.025    -385.543
  O     -305.733     815.144    -386.350
  C     -305.899     812.665    -386.229
  N     -306.955     812.384    -387.212
  C     -306.678     812.641    -388.546
  O     -305.597     813.097    -388.959
  N     -307.699     812.423    -389.428
  C     -308.968     812.070    -389.101
  O     -309.884     812.014    -389.922
  C     -309.214     811.809    -387.678
  C     -308.216     811.967    -386.798
  O     -309.192     811.005    -382.364
  O     -308.615     812.874    -380.700
  H     -305.631     815.908    -385.764
  H     -309.538     810.616    -381.552
  H     -307.513     812.604    -390.410
  H     -310.219     811.487    -387.380
  H     -308.372     811.801    -385.745
  H     -304.925     812.617    -386.717
  H     -307.104     814.169    -385.194
  H     -305.363     814.542    -383.540
  H     -304.447     811.883    -383.695
  H     -306.570     811.102    -382.694
  H     -305.960     812.554    -381.881
  P     -303.093     815.415    -384.682
  C     -303.271     817.087    -386.692
  O     -303.930     816.389    -385.641
  O     -301.738     815.157    -385.476
  O     -302.875     815.879    -383.266
  H     -301.870     814.630    -386.297
  H     -302.468     816.499    -387.117
  H     -302.893     818.021    -386.311
  H     -304.004     817.293    -387.473
  H     -311.103     815.069    -383.151
  H     -309.359     815.167    -383.155
  H     -310.221     815.004    -381.644

 3  4  5  6  7  8  9  10  11  12  13  23  28  29  30  31  32 0
 6-311+G(2d,p)
 ****
 33  34 0
 6-311+G(2d,p)
 ****
 1  2  14  15  16  17  18  19  20  21  22  24  25  26 0
 3-21G
 ****
 27  35  36  37  38  39  40  41  42  43  44  45 0
 3-21G
 ****


