%nproc=1
%NoSave
%Mem=1900MB
#P OB98/GEN NMR

erre ene a

0 1
  C      226.394     360.212    -686.670
  O      227.148     360.108    -685.481
  H      225.333     360.219    -686.418
  H      226.593     359.347    -687.313
  H      226.638     361.136    -687.200
  P      228.743     360.258    -685.618
  C      230.392     361.945    -684.462
  O      229.196     361.188    -684.387
  C      230.426     362.999    -683.349
  O      229.602     364.129    -683.754
  C      229.898     362.494    -682.005
  O      230.656     363.120    -680.957
  C      228.472     363.024    -681.963
  O      227.971     363.131    -680.636
  C      228.629     364.357    -682.718
  N      227.358     364.839    -683.275
  C      227.294     366.200    -683.592
  O      228.265     366.931    -683.400
  N      226.113     366.712    -684.083
  C      225.076     365.939    -684.177
  N      223.928     366.510    -684.647
  C      225.091     364.513    -683.809
  C      226.252     364.030    -683.373
  O      228.877     361.220    -686.889
  O      229.478     358.961    -685.744
  H      228.210     362.316    -680.142
  H      228.256     361.971    -686.870
  H      224.186     363.910    -683.897
  H      226.350     362.990    -683.087
  H      229.024     365.134    -682.054
  H      227.806     362.345    -682.525
  H      229.955     361.412    -681.907
  H      231.453     363.378    -683.254
  H      223.960     367.498    -684.874
  H      230.468     362.442    -685.434
  H      223.050     366.027    -684.711
  H      231.241     361.262    -684.355
  P      231.595     362.213    -680.027
  C      233.014     362.472    -677.877
  O      232.119     363.095    -678.786
  O      232.646     361.423    -680.728
  O      230.533     361.226    -679.318
  H      230.934     360.333    -679.286
  H      233.280     363.165    -677.107
  H      233.895     362.163    -678.399
  H      232.541     361.618    -677.440

 6  7  8  9  10  11  12  13  14  15  16  26  30  31  32  33  35 0
 6-311+G(2d,p)
 ****
 37  38 0
 6-311+G(2d,p)
 ****
 1  2  3  4  5  17  18  19  20  21  22  23  24  25 0
 3-21G
 ****
 27  28  29  34  36  39  40  41  42  43  44  45  46 0
 3-21G
 ****


