%nproc=1
%NoSave
%Mem=1900MB
#P OB98/GEN NMR

erre ene a

0 1
  C       81.164    -729.461     265.246
  O       81.088    -729.946     266.564
  H       80.227    -728.953     265.001
  H       81.295    -730.298     264.548
  H       81.990    -728.760     265.138
  P       82.405    -730.657     267.156
  C       81.619    -732.968     266.285
  O       82.638    -731.978     266.272
  C       82.136    -734.286     265.705
  O       82.720    -734.025     264.389
  C       83.220    -734.971     266.565
  O       83.046    -736.385     266.450
  C       84.505    -734.589     265.844
  O       85.584    -735.484     266.140
  C       84.028    -734.637     264.393
  N       87.471    -735.342     260.786
  C       86.672    -736.256     261.468
  N       86.832    -737.553     261.128
  N       85.820    -735.913     262.384
  C       85.753    -734.576     262.599
  C       86.476    -733.571     261.996
  C       87.445    -733.964     260.992
  O       88.187    -733.205     260.371
  N       86.137    -732.349     262.497
  C       85.204    -732.605     263.408
  N       84.934    -733.944     263.495
  O       81.886    -731.228     268.563
  O       83.593    -729.771     267.314
  H       85.265    -736.397     266.007
  H       82.074    -730.585     269.276
  H       88.125    -735.654     260.096
  H       84.698    -731.863     264.012
  H       83.926    -735.660     264.015
  H       84.810    -733.577     266.128
  H       87.439    -737.881     260.398
  H       83.210    -734.678     267.617
  H       86.231    -738.228     261.586
  H       81.281    -734.957     265.546
  H       80.773    -732.620     265.668
  H       81.272    -733.129     267.313
  P       82.006    -737.103     267.449
  C       83.626    -737.642     269.418
  O       82.523    -736.869     268.948
  O       82.305    -738.657     267.205
  O       80.580    -736.761     267.187
  H       81.506    -739.178     267.394
  H       83.847    -737.370     270.429
  H       84.481    -737.454     268.803
  H       83.377    -738.682     269.375

 6  7  8  9  10  11  12  13  14  15  26  29  33  34 0
 6-311+G(2d,p)
 ****
 36  38  39  40  41 0
 6-311+G(2d,p)
 ****
 1  2  3  4  5  16  17  18  19  20  21  22  23  24  25 0
 3-21G
 ****
 27  28  30  31  32  35  37  42  43  44  45  46  47 0
 3-21G
 ****
 48  49 0
 3-21G
 ****


