%nproc=1
%NoSave
%Mem=1900MB
#P OB98/GEN NMR

erre ene a

0 1
  C     -440.320    -289.689     -72.560
  O     -441.260    -290.215     -73.481
  H     -439.484    -290.385     -72.472
  H     -440.786    -289.568     -71.575
  H     -439.943    -288.726     -72.915
  P     -442.598    -289.358     -73.701
  C     -442.030    -288.734     -76.153
  O     -442.255    -288.269     -74.830
  C     -443.115    -288.215     -77.092
  O     -443.276    -286.786     -76.950
  C     -442.843    -288.478     -78.569
  O     -443.253    -289.788     -78.933
  C     -443.690    -287.395     -79.226
  O     -445.080    -287.787     -79.277
  C     -443.495    -286.214     -78.268
  N     -442.241    -281.423     -79.265
  C     -443.476    -281.988     -79.029
  N     -444.545    -281.165     -79.095
  N     -443.655    -283.260     -78.765
  C     -442.510    -283.975     -78.787
  C     -441.223    -283.531     -79.008
  C     -441.034    -282.115     -79.248
  O     -439.958    -281.542     -79.381
  N     -440.319    -284.562     -78.932
  C     -441.062    -285.629     -78.697
  N     -442.395    -285.323     -78.607
  O     -442.704    -288.480     -72.364
  O     -443.839    -290.153     -73.924
  H     -445.158    -288.624     -79.765
  H     -443.646    -288.409     -72.109
  H     -442.155    -280.435     -79.431
  H     -440.681    -286.640     -78.576
  H     -444.394    -285.587     -78.204
  H     -443.383    -287.211     -80.258
  H     -444.502    -280.272     -79.571
  H     -441.786    -288.311     -78.816
  H     -445.457    -281.595     -78.993
  H     -444.061    -288.677     -76.788
  H     -442.044    -289.830     -76.151
  H     -441.050    -288.389     -76.495
  P     -442.826    -290.338     -80.379
  C     -440.604    -291.371     -79.507
  O     -441.222    -290.465     -80.408
  O     -443.123    -289.089     -81.343
  O     -443.572    -291.550     -80.830
  H     -443.933    -289.255     -81.862
  H     -439.543    -291.343     -79.645
  H     -440.962    -292.361     -79.695
  H     -440.840    -291.091     -78.502

 6  7  8  9  10  11  12  13  14  15  26  29  33  34 0
 6-311+G(2d,p)
 ****
 36  38  39  40  41 0
 6-311+G(2d,p)
 ****
 1  2  3  4  5  16  17  18  19  20  21  22  23  24  25 0
 3-21G
 ****
 27  28  30  31  32  35  37  42  43  44  45  46  47 0
 3-21G
 ****
 48  49 0
 3-21G
 ****


