%nproc=1
%NoSave
%Mem=1900MB
#P OB98/GEN NMR

erre ene a

0 1
  C      -17.684    -273.113     -18.285
  O      -16.826    -274.230     -18.170
  H      -18.379    -273.121     -17.442
  H      -18.259    -273.179     -19.211
  H      -17.115    -272.181     -18.261
  P      -15.610    -274.386     -19.203
  C      -16.301    -276.669     -20.191
  O      -16.142    -275.276     -20.431
  C      -16.949    -277.355     -21.398
  O      -18.300    -276.847     -21.551
  C      -16.206    -277.115     -22.715
  O      -16.259    -278.300     -23.507
  C      -17.013    -276.016     -23.381
  O      -16.884    -276.034     -24.802
  C      -18.427    -276.323     -22.891
  N      -22.905    -274.477     -24.331
  C      -22.405    -275.762     -24.405
  N      -23.209    -276.694     -24.964
  N      -21.218    -276.105     -23.973
  C      -20.532    -275.075     -23.418
  C      -20.917    -273.762     -23.286
  C      -22.224    -273.394     -23.789
  O      -22.715    -272.266     -23.764
  N      -19.934    -273.014     -22.686
  C      -18.958    -273.874     -22.460
  N      -19.267    -275.137     -22.896
  O      -14.326    -274.861     -18.599
  O      -15.453    -272.934     -19.850
  H      -15.953    -275.798     -25.007
  H      -14.673    -272.474     -19.494
  H      -23.820    -274.266     -24.688
  H      -18.013    -273.638     -21.989
  H      -18.930    -277.073     -23.509
  H      -16.675    -275.036     -23.018
  H      -24.142    -276.504     -25.295
  H      -15.166    -276.826     -22.557
  H      -22.878    -277.650     -25.002
  H      -17.034    -278.427     -21.185
  H      -16.941    -276.794     -19.311
  H      -15.323    -277.115     -19.985
  P      -14.907    -279.123     -23.774
  C      -14.048    -277.438     -25.514
  O      -13.775    -278.104     -24.288
  O      -15.060    -280.361     -24.590
  O      -14.409    -279.476     -22.289
  H      -13.977    -280.353     -22.299
  H      -13.232    -276.790     -25.757
  H      -14.944    -276.862     -25.415
  H      -14.173    -278.161     -26.293

 6  7  8  9  10  11  12  13  14  15  26  29  33  34 0
 6-311+G(2d,p)
 ****
 36  38  39  40  41 0
 6-311+G(2d,p)
 ****
 1  2  3  4  5  16  17  18  19  20  21  22  23  24  25 0
 3-21G
 ****
 27  28  30  31  32  35  37  42  43  44  45  46  47 0
 3-21G
 ****
 48  49 0
 3-21G
 ****


