%nproc=1
%NoSave
%Mem=1900MB
#P OB98/GEN NMR

erre ene a

0 1
  C     -166.523    -415.878     501.991
  O     -167.045    -414.636     501.555
  H     -165.663    -415.709     502.643
  H     -167.300    -416.406     502.554
  H     -166.228    -416.492     501.136
  P     -166.127    -413.775     500.555
  C     -168.152    -412.797     499.250
  O     -167.035    -412.535     500.086
  C     -168.761    -411.485     498.739
  O     -169.415    -410.811     499.844
  C     -167.723    -410.520     498.154
  O     -168.286    -409.868     497.011
  C     -167.506    -409.512     499.275
  O     -167.043    -408.257     498.784
  C     -168.894    -409.469     499.912
  N     -168.496    -405.352     502.909
  C     -168.629    -405.486     501.571
  N     -168.731    -406.623     500.847
  C     -168.743    -407.699     501.660
  C     -168.619    -407.716     503.042
  C     -168.478    -406.471     503.675
  N     -168.311    -406.327     505.032
  N     -168.639    -409.022     503.510
  C     -168.773    -409.770     502.429
  N     -168.835    -409.015     501.290
  O     -166.071    -414.714     499.254
  O     -164.765    -413.429     501.059
  H     -167.105    -407.603     499.512
  H     -165.413    -415.423     499.394
  H     -168.640    -404.557     500.999
  H     -168.820    -410.851     502.418
  H     -169.580    -408.801     499.376
  H     -166.762    -409.902     499.982
  H     -166.796    -411.020     497.865
  H     -169.539    -411.727     498.005
  H     -168.907    -413.349     499.832
  H     -168.162    -405.399     505.393
  H     -168.231    -407.155     505.609
  H     -167.835    -413.415     498.402
  P     -167.648    -410.224     495.581
  C     -169.881    -410.777     494.391
  O     -168.741    -409.931     494.444
  O     -167.542    -411.825     495.610
  O     -166.308    -409.593     495.353
  H     -166.645    -412.106     495.347
  H     -170.519    -410.466     493.590
  H     -170.415    -410.715     495.316
  H     -169.568    -411.787     494.227

 6  7  8  9  10  11  12  13  14  15  25  28  32  33  34  35 0
 6-311+G(2d,p)
 ****
 36  39  40 0
 6-311+G(2d,p)
 ****
 1  2  3  4  5  16  17  18  19  20  21  22  23  24 0
 3-21G
 ****
 26  27  29  30  31  37  38  41  42  43  44  45  46  47 0
 3-21G
 ****
 48 0
 3-21G
 ****


