%nproc=1
%NoSave
%Mem=1900MB
#P OB98/GEN NMR

erre ene a

0 1
  C     -163.632    -355.935     865.027
  O     -164.195    -354.636     865.044
  H     -163.698    -356.334     864.005
  H     -164.196    -356.603     865.696
  H     -162.585    -355.902     865.324
  P     -164.224    -353.842     866.433
  C     -165.203    -354.306     868.788
  O     -165.142    -354.717     867.419
  C     -166.517    -354.761     869.404
  O     -166.638    -356.195     869.348
  C     -166.666    -354.371     870.877
  O     -167.087    -353.024     870.994
  C     -167.735    -355.370     871.313
  O     -169.023    -354.935     870.847
  C     -167.286    -356.641     870.567
  N     -166.824    -360.051     874.296
  C     -167.933    -359.348     873.866
  N     -169.079    -359.560     874.556
  N     -167.930    -358.511     872.867
  C     -166.697    -358.350     872.313
  C     -165.513    -358.966     872.662
  C     -165.551    -359.945     873.744
  O     -164.593    -360.596     874.139
  N     -164.468    -358.496     871.920
  C     -165.012    -357.625     871.095
  N     -166.359    -357.482     871.304
  O     -164.615    -352.400     866.368
  O     -162.753    -354.038     867.028
  H     -169.093    -353.982     871.057
  H     -162.166    -353.307     866.770
  H     -166.885    -360.668     875.082
  H     -164.481    -357.077     870.331
  H     -168.139    -357.264     870.278
  H     -167.797    -355.478     872.398
  H     -169.065    -359.965     875.480
  H     -165.751    -354.564     871.448
  H     -169.889    -359.023     874.288
  H     -167.340    -354.339     868.804
  H     -165.118    -353.212     868.803
  H     -164.361    -354.732     869.341
  P     -166.791    -352.174     872.322
  C     -167.462    -352.525     874.801
  O     -167.776    -352.787     873.439
  O     -166.868    -350.698     872.165
  O     -165.354    -352.684     872.824
  H     -164.597    -352.185     872.424
  H     -168.193    -352.988     875.431
  H     -167.463    -351.468     874.970
  H     -166.494    -352.922     875.027

 6  7  8  9  10  11  12  13  14  15  26  29  33  34 0
 6-311+G(2d,p)
 ****
 36  38  39  40  41 0
 6-311+G(2d,p)
 ****
 1  2  3  4  5  16  17  18  19  20  21  22  23  24  25 0
 3-21G
 ****
 27  28  30  31  32  35  37  42  43  44  45  46  47 0
 3-21G
 ****
 48  49 0
 3-21G
 ****


