%nproc=1
%NoSave
%Mem=1900MB
#P OB98/GEN NMR

erre ene a

0 1
  C      -28.049    -125.829    -155.896
  O      -28.775    -127.028    -156.088
  P      -30.059    -127.050    -157.045
  C      -29.358    -129.064    -158.479
  O      -29.622    -127.665    -158.460
  C      -28.199    -129.376    -159.422
  O      -26.943    -128.932    -158.858
  C      -28.005    -130.859    -159.698
  O      -29.006    -131.376    -160.554
  C      -26.595    -130.866    -160.274
  O      -26.609    -130.492    -161.660
  C      -25.909    -129.771    -159.429
  N      -25.044    -130.324    -158.401
  C      -23.671    -130.118    -158.575
  O      -23.248    -129.570    -159.593
  N      -22.814    -130.547    -157.592
  C      -23.274    -131.232    -156.591
  N      -22.387    -131.578    -155.620
  C      -24.696    -131.609    -156.456
  C      -25.519    -131.108    -157.375
  O      -30.814    -125.766    -157.128
  O      -30.980    -128.208    -156.428
  H      -31.887    -127.860    -156.313
  H      -27.080    -129.637    -161.713
  H      -25.016    -132.239    -155.639
  H      -26.584    -131.314    -157.343
  H      -25.316    -129.113    -160.074
  H      -26.123    -131.851    -160.210
  H      -28.013    -131.413    -158.750
  H      -28.366    -128.830    -160.359
  H      -21.426    -131.285    -155.738
  H      -30.258    -129.585    -158.816
  H      -22.680    -131.813    -154.674
  H      -29.127    -129.401    -157.462
  P      -29.603    -132.818    -160.185
  C      -32.032    -132.080    -159.679
  O      -30.817    -132.591    -159.168
  O      -28.458    -133.469    -159.272
  O      -29.913    -133.683    -161.364
  H      -28.401    -134.426    -159.451
  H      -32.833    -132.308    -158.972
  H      -32.277    -132.525    -160.647
  H      -31.955    -130.995    -159.785
  H      -27.232    -126.010    -155.230
  H      -28.694    -125.085    -155.476
  H      -27.673    -125.485    -156.837

 3  4  5  6  7  8  9  10  11  12  13  24  27  28  29  30  32 0
 6-311+G(2d,p)
 ****
 34  35 0
 6-311+G(2d,p)
 ****
 1  2  14  15  16  17  18  19  20  21  22  23  25  26 0
 3-21G
 ****
 31  33  36  37  38  39  40  41  42  43  44  45  46 0
 3-21G
 ****


