%nproc=1
%NoSave
%Mem=1900MB
#P OB98/GEN NMR

erre ene a

0 1
  C      376.237     -48.058     155.161
  O      377.337     -47.246     155.531
  H      376.269     -48.980     155.750
  H      376.280     -48.318     154.103
  H      375.297     -47.540     155.380
  P      377.655     -45.955     154.629
  C      377.573     -45.430     152.100
  O      377.470     -46.433     153.106
  C      378.264     -45.977     150.847
  O      377.493     -47.065     150.295
  C      378.386     -44.964     149.719
  O      379.295     -43.909     149.985
  C      378.596     -45.847     148.504
  O      379.959     -46.208     148.291
  C      377.776     -47.111     148.880
  N      376.555     -47.221     148.090
  C      376.721     -47.671     146.779
  O      377.824     -47.936     146.287
  N      375.582     -47.760     146.029
  C      374.324     -47.407     146.440
  O      373.345     -47.476     145.705
  C      374.217     -46.922     147.824
  C      375.316     -46.850     148.571
  O      378.973     -45.282     154.895
  O      376.388     -45.007     154.863
  H      380.432     -45.394     148.034
  H      376.581     -44.073     154.581
  H      375.683     -48.094     145.084
  H      373.232     -46.630     148.179
  H      375.263     -46.495     149.598
  H      378.371     -48.017     148.704
  H      378.248     -45.357     147.586
  H      377.409     -44.484     149.590
  H      379.247     -46.366     151.135
  H      378.173     -44.605     152.511
  H      376.576     -45.053     151.853
  P      379.325     -42.547     149.163
  C      380.122     -41.773     146.807
  O      380.147     -42.801     147.796
  O      379.591     -41.300     149.931
  O      377.807     -42.467     148.622
  H      377.547     -41.521     148.592
  H      380.705     -42.076     145.962
  H      380.530     -40.873     147.217
  H      379.112     -41.598     146.499

 6  7  8  9  10  11  12  13  14  15  16  26  31  32  33  34  35 0
 6-311+G(2d,p)
 ****
 36  37 0
 6-311+G(2d,p)
 ****
 1  2  3  4  5  17  18  19  20  21  22  23  24  25 0
 3-21G
 ****
 27  28  29  30  38  39  40  41  42  43  44  45 0
 3-21G
 ****


