%nproc=1
%NoSave
%Mem=1900MB
#P OB98/GEN NMR

erre ene a

0 1
  C      279.390    -233.322    -289.646
  O      280.696    -233.326    -290.238
  P      281.317    -234.730    -290.688
  C      281.986    -233.810    -293.026
  O      282.402    -234.454    -291.832
  C      283.193    -233.496    -293.913
  O      284.218    -232.779    -293.184
  C      283.875    -234.735    -294.477
  O      283.218    -235.211    -295.643
  C      285.238    -234.173    -294.848
  O      285.158    -233.477    -296.107
  C      285.507    -233.192    -293.703
  N      290.218    -234.046    -292.065
  C      289.773    -233.412    -293.208
  N      290.728    -232.926    -294.038
  N      288.510    -233.264    -293.516
  C      287.675    -233.782    -292.590
  C      287.990    -234.434    -291.420
  C      289.387    -234.604    -291.101
  O      289.840    -235.170    -290.107
  N      286.861    -234.821    -290.745
  C      285.867    -234.391    -291.491
  N      286.303    -233.766    -292.632
  O      280.110    -235.408    -291.503
  O      281.769    -235.593    -289.556
  H      284.427    -232.837    -296.027
  H      280.180    -236.377    -291.452
  H      291.200    -234.133    -291.881
  H      284.814    -234.504    -291.252
  H      286.031    -232.288    -294.042
  H      285.993    -234.961    -294.971
  H      291.717    -232.961    -293.836
  H      283.976    -235.517    -293.715
  H      290.421    -232.430    -294.862
  H      282.850    -232.861    -294.744
  H      281.444    -232.889    -292.794
  H      281.267    -234.454    -293.545
  P      281.617    -235.152    -295.678
  C      280.987    -234.915    -298.185
  O      281.179    -235.777    -297.084
  O      281.326    -233.584    -295.841
  O      280.942    -235.716    -294.473
  H      280.485    -233.355    -295.402
  H      280.853    -235.523    -299.085
  H      281.854    -234.262    -298.327
  H      280.087    -234.310    -298.037
  H      279.113    -232.318    -289.400
  H      279.400    -233.917    -288.757
  H      278.683    -233.727    -290.339

 3  4  5  6  7  8  9  10  11  12  23  26  30  31 0
 6-311+G(2d,p)
 ****
 33  35  36  37  38 0
 6-311+G(2d,p)
 ****
 1  2  13  14  15  16  17  18  19  20  21  22  24  25 0
 3-21G
 ****
 27  28  29  32  34  39  40  41  42  43  44  45  46  47  48  49 0
 3-21G
 ****


