%nproc=1
%NoSave
%Mem=1900MB
#P OB98/GEN NMR

erre ene a

0 1
  C     -442.639    -125.599     128.966
  O     -443.751    -125.828     129.811
  H     -441.726    -125.677     129.562
  H     -442.692    -124.597     128.530
  H     -442.612    -126.350     128.174
  P     -445.201    -125.721     129.133
  C     -445.687    -123.989     130.980
  O     -446.147    -125.153     130.303
  C     -446.866    -123.112     131.397
  O     -447.423    -122.495     130.208
  C     -447.991    -123.887     132.087
  O     -448.538    -123.089     133.134
  C     -449.025    -124.069     130.992
  O     -450.343    -124.239     131.509
  C     -448.828    -122.800     130.163
  N     -452.449    -121.591     126.778
  C     -452.202    -121.155     128.031
  N     -451.202    -121.520     128.864
  C     -450.378    -122.396     128.257
  C     -450.502    -122.932     126.987
  C     -451.605    -122.498     126.232
  N     -451.876    -122.956     124.963
  N     -449.482    -123.835     126.745
  C     -448.751    -123.833     127.842
  N     -449.262    -122.991     128.792
  O     -445.695    -126.957     128.459
  O     -445.023    -124.444     128.184
  H     -450.920    -124.553     130.783
  H     -444.552    -123.723     128.642
  H     -452.904    -120.425     128.426
  H     -447.859    -124.425     128.004
  H     -449.386    -121.945     130.568
  H     -448.778    -124.961     130.397
  H     -447.651    -124.842     132.491
  H     -446.495    -122.297     132.031
  H     -445.015    -123.415     130.330
  H     -452.681    -122.581     124.485
  H     -451.249    -123.619     124.531
  H     -445.124    -124.310     131.862
  P     -447.727    -122.972     134.510
  C     -448.866    -125.173     135.236
  O     -448.475    -123.855     135.624
  O     -447.357    -121.589     134.934
  O     -446.414    -123.843     134.214
  H     -445.648    -123.417     134.640
  H     -449.351    -125.658     136.058
  H     -448.000    -125.733     134.952
  H     -449.540    -125.116     134.407

 6  7  8  9  10  11  12  13  14  15  25  28  32  33  34  35 0
 6-311+G(2d,p)
 ****
 36  39  40 0
 6-311+G(2d,p)
 ****
 1  2  3  4  5  16  17  18  19  20  21  22  23  24 0
 3-21G
 ****
 26  27  29  30  31  37  38  41  42  43  44  45  46  47 0
 3-21G
 ****
 48 0
 3-21G
 ****


