%nproc=1
%NoSave
%Mem=1900MB
#P OB98/GEN NMR

erre ene a

0 1
  C      -60.763    -201.395      -7.170
  O      -60.361    -201.746      -8.480
  H      -60.572    -202.244      -6.507
  H      -61.833    -201.164      -7.151
  H      -60.184    -200.537      -6.818
  P      -60.590    -200.641      -9.622
  C      -61.110    -202.490     -11.365
  O      -61.589    -201.349     -10.664
  C      -62.186    -203.570     -11.426
  O      -62.492    -204.047     -10.101
  C      -63.507    -203.112     -12.034
  O      -63.451    -203.167     -13.447
  C      -64.466    -204.155     -11.469
  O      -64.384    -205.358     -12.260
  C      -63.896    -204.412     -10.061
  N      -65.836    -204.710      -5.316
  C      -65.429    -205.664      -6.177
  N      -64.975    -205.519      -7.440
  C      -64.960    -204.223      -7.799
  C      -65.353    -203.135      -7.024
  C      -65.805    -203.419      -5.722
  N      -66.224    -202.438      -4.847
  N      -65.202    -201.953      -7.724
  C      -64.672    -202.319      -8.871
  N      -64.537    -203.683      -8.979
  O      -59.349    -200.040     -10.199
  O      -61.555    -199.614      -8.861
  H      -63.441    -205.496     -12.466
  H      -62.213    -200.092      -8.330
  H      -65.475    -206.682      -5.802
  H      -64.346    -201.640      -9.651
  H      -63.951    -205.477      -9.795
  H      -65.503    -203.824     -11.493
  H      -63.800    -202.116     -11.663
  H      -61.777    -204.423     -11.992
  H      -60.211    -202.887     -10.872
  H      -66.710    -202.745      -4.018
  H      -66.322    -201.496      -5.202
  H      -60.832    -202.168     -12.378
  P      -63.553    -201.836     -14.334
  C      -64.649    -203.028     -16.337
  O      -64.821    -202.072     -15.294
  O      -62.286    -201.445     -15.018
  O      -64.077    -200.720     -13.316
  H      -63.922    -199.827     -13.686
  H      -65.552    -203.100     -16.907
  H      -64.418    -203.982     -15.912
  H      -63.848    -202.719     -16.976

 6  7  8  9  10  11  12  13  14  15  25  28  32  33  34  35 0
 6-311+G(2d,p)
 ****
 36  39  40 0
 6-311+G(2d,p)
 ****
 1  2  3  4  5  16  17  18  19  20  21  22  23  24 0
 3-21G
 ****
 26  27  29  30  31  37  38  41  42  43  44  45  46  47 0
 3-21G
 ****
 48 0
 3-21G
 ****


