%nproc=1
%NoSave
%Mem=1900MB
#P OB98/GEN NMR

erre ene a

0 1
  C     -185.958     190.464    -295.146
  O     -186.748     189.483    -295.791
  H     -185.951     190.253    -294.072
  H     -186.372     191.467    -295.303
  H     -184.931     190.424    -295.517
  P     -187.127     189.716    -297.335
  C     -186.879     187.183    -297.803
  O     -187.747     188.317    -297.838
  C     -187.681     185.883    -297.937
  O     -188.438     185.639    -296.731
  C     -188.709     185.908    -299.059
  O     -188.145     185.913    -300.359
  C     -189.657     184.791    -298.653
  O     -189.246     183.502    -299.101
  C     -189.593     184.863    -297.104
  N     -190.819     185.388    -296.522
  C     -191.935     184.556    -296.599
  O     -191.924     183.444    -297.135
  N     -193.091     185.056    -296.068
  C     -193.246     186.306    -295.528
  O     -194.328     186.719    -295.104
  C     -192.044     187.147    -295.498
  C     -190.899     186.657    -295.994
  O     -186.020     190.238    -298.208
  O     -188.402     190.679    -297.271
  H     -189.573     182.853    -298.448
  H     -188.571     191.107    -298.147
  H     -193.909     184.472    -296.099
  H     -192.127     188.147    -295.086
  H     -189.992     187.260    -295.985
  H     -189.436     183.852    -296.689
  H     -190.666     184.957    -299.053
  H     -189.275     186.845    -298.973
  H     -186.972     185.057    -298.066
  H     -186.365     187.190    -296.836
  H     -186.140     187.258    -298.605
  P     -189.011     185.743    -301.689
  C     -187.350     187.155    -303.103
  O     -188.031     185.917    -302.955
  O     -190.348     186.422    -301.717
  O     -189.288     184.152    -301.690
  H     -190.178     184.003    -302.070
  H     -186.740     187.124    -303.982
  H     -186.732     187.327    -302.246
  H     -188.064     187.947    -303.192

 6  7  8  9  10  11  12  13  14  15  16  26  31  32  33  34  35 0
 6-311+G(2d,p)
 ****
 36  37 0
 6-311+G(2d,p)
 ****
 1  2  3  4  5  17  18  19  20  21  22  23  24  25 0
 3-21G
 ****
 27  28  29  30  38  39  40  41  42  43  44  45 0
 3-21G
 ****


