%nproc=1
%NoSave
%Mem=1900MB
#P OB98/GEN NMR

erre ene a

0 1
  C     -145.487    -186.448    -134.602
  O     -145.662    -186.557    -136.013
  P     -144.497    -187.269    -136.852
  C     -145.860    -189.497    -137.098
  O     -145.164    -188.435    -137.726
  C     -146.579    -190.376    -138.138
  O     -147.606    -189.577    -138.783
  C     -145.702    -190.897    -139.270
  O     -146.364    -192.003    -139.892
  C     -145.690    -189.719    -140.221
  O     -145.280    -190.103    -141.530
  C     -147.134    -189.181    -140.098
  N     -147.235    -187.714    -140.252
  C     -146.999    -187.163    -141.510
  O     -146.708    -187.824    -142.507
  N     -147.067    -185.799    -141.592
  C     -147.382    -184.951    -140.575
  O     -147.345    -183.730    -140.682
  C     -147.759    -185.589    -139.308
  C     -147.660    -186.916    -139.203
  O     -143.654    -188.045    -135.737
  O     -143.654    -186.318    -137.635
  H     -145.949    -190.752    -141.851
  H     -142.813    -187.579    -135.566
  H     -146.831    -185.382    -142.482
  H     -148.081    -184.952    -138.495
  H     -147.916    -187.404    -138.265
  H     -147.789    -189.633    -140.853
  H     -144.980    -188.967    -139.864
  H     -144.693    -191.189    -138.967
  H     -147.080    -191.203    -137.623
  H     -146.577    -189.096    -136.377
  H     -145.154    -190.113    -136.529
  P     -145.457    -193.164    -140.522
  C     -145.937    -194.800    -138.599
  O     -146.062    -194.550    -139.985
  O     -143.982    -193.000    -140.367
  O     -145.897    -193.166    -142.066
  H     -145.216    -193.613    -142.598
  H     -146.772    -195.429    -138.278
  H     -145.951    -193.871    -138.020
  H     -145.000    -195.330    -138.409
  H     -146.335    -185.955    -134.174
  H     -144.603    -185.881    -134.395
  H     -145.391    -187.426    -134.178

 3  4  5  6  7  8  9  10  11  12  13  23  28  29  30  31  32 0
 6-311+G(2d,p)
 ****
 33  34 0
 6-311+G(2d,p)
 ****
 1  2  14  15  16  17  18  19  20  21  22  24  25  26  27 0
 3-21G
 ****
 35  36  37  38  39  40  41  42  43  44  45 0
 3-21G
 ****


