%nproc=1
%NoSave
%Mem=1900MB
#P OB98/GEN NMR

erre ene a

0 1
  C     -136.089      25.151     -89.776
  O     -134.879      24.705     -89.170
  P     -133.896      23.771     -90.022
  C     -133.012      22.012     -88.254
  O     -132.784      23.142     -89.066
  C     -132.075      22.064     -87.037
  O     -132.421      23.176     -86.185
  C     -132.134      20.806     -86.176
  O     -131.255      19.799     -86.643
  C     -131.765      21.344     -84.808
  O     -130.343      21.545     -84.716
  C     -132.504      22.704     -84.810
  N     -133.921      22.727     -84.387
  C     -134.276      23.345     -83.190
  O     -133.480      23.887     -82.429
  N     -135.611      23.336     -82.882
  C     -136.625      22.939     -83.702
  O     -137.808      23.010     -83.397
  C     -136.208      22.434     -85.015
  C     -134.905      22.340     -85.286
  O     -133.082      24.803     -90.929
  O     -134.592      22.731     -90.843
  H     -129.916      20.803     -85.179
  H     -133.284      24.660     -91.872
  H     -135.878      23.715     -81.986
  H     -136.982      22.152     -85.716
  H     -134.585      21.966     -86.256
  H     -131.976      23.430     -84.182
  H     -132.023      20.638     -84.023
  H     -133.161      20.432     -86.123
  H     -131.050      22.220     -87.397
  H     -132.845      21.089     -88.814
  H     -134.057      21.999     -87.927
  P     -131.659      18.257     -86.499
  C     -129.255      17.550     -85.949
  O     -130.332      17.428     -86.858
  O     -132.898      17.835     -87.214
  O     -131.778      18.047     -84.914
  H     -132.714      18.133     -84.621
  H     -128.485      16.823     -86.218
  H     -129.592      17.350     -84.928
  H     -128.831      18.555     -86.009
  H     -136.631      25.761     -89.084
  H     -136.685      24.305     -90.048
  H     -135.860      25.722     -90.651

 3  4  5  6  7  8  9  10  11  12  13  23  28  29  30  31  32 0
 6-311+G(2d,p)
 ****
 33  34 0
 6-311+G(2d,p)
 ****
 1  2  14  15  16  17  18  19  20  21  22  24  25  26  27 0
 3-21G
 ****
 35  36  37  38  39  40  41  42  43  44  45 0
 3-21G
 ****


