%nproc=1
%NoSave
%Mem=1900MB
#P OB98/GEN NMR

erre ene a

0 1
  C      -26.158      78.461      36.640
  O      -25.600      77.349      35.963
  H      -25.350      79.144      36.917
  H      -26.672      78.132      37.549
  H      -26.857      78.987      35.983
  P      -26.622      76.201      35.498
  C      -27.833      74.311      36.790
  O      -26.766      75.250      36.783
  C      -27.737      73.398      38.011
  O      -26.620      72.500      37.874
  C      -27.536      74.134      39.331
  O      -28.781      74.586      39.842
  C      -26.950      73.024      40.194
  O      -28.013      72.184      40.685
  C      -26.081      72.240      39.195
  N      -21.377      70.750      40.626
  C      -22.605      70.267      40.931
  N      -23.812      70.745      40.561
  C      -23.675      71.834      39.785
  C      -22.492      72.443      39.393
  C      -21.297      71.852      39.842
  N      -20.049      72.349      39.531
  N      -22.741      73.544      38.601
  C      -24.053      73.564      38.466
  N      -24.668      72.573      39.194
  O      -26.294      75.526      34.209
  O      -28.009      77.006      35.509
  H      -28.606      72.007      39.930
  H      -28.055      77.596      36.284
  H      -22.616      69.379      41.559
  H      -24.604      74.259      37.844
  H      -26.145      71.156      39.365
  H      -26.418      73.407      41.066
  H      -26.801      74.943      39.239
  H      -28.647      72.783      38.042
  H      -27.813      73.706      35.872
  H      -19.264      71.981      40.051
  H      -20.001      73.240      39.058
  H      -28.772      74.875      36.809
  P      -28.889      75.966      40.656
  C      -27.405      76.936      42.519
  O      -27.964      75.758      41.951
  O      -30.281      76.423      40.917
  O      -28.048      77.007      39.781
  H      -28.267      77.924      40.045
  H      -26.812      76.675      43.370
  H      -28.192      77.594      42.821
  H      -26.790      77.425      41.793

 6  7  8  9  10  11  12  13  14  15  25  28  32  33  34  35 0
 6-311+G(2d,p)
 ****
 36  39  40 0
 6-311+G(2d,p)
 ****
 1  2  3  4  5  16  17  18  19  20  21  22  23  24 0
 3-21G
 ****
 26  27  29  30  31  37  38  41  42  43  44  45  46  47 0
 3-21G
 ****
 48 0
 3-21G
 ****


