%nproc=1
%NoSave
%Mem=1900MB
#P OB98/GEN NMR

erre ene a

0 1
  C     -502.590    -185.152     350.045
  O     -502.455    -185.418     351.447
  P     -501.034    -185.971     351.956
  C     -501.756    -188.465     352.303
  O     -500.989    -187.526     351.555
  C     -501.042    -189.821     352.368
  O     -499.840    -189.702     353.197
  C     -501.894    -190.964     352.951
  O     -501.547    -192.144     352.213
  C     -501.405    -191.064     354.383
  O     -501.681    -192.343     354.947
  C     -499.909    -190.745     354.190
  N     -499.248    -190.346     355.434
  C     -498.244    -191.188     355.911
  O     -497.945    -192.246     355.373
  N     -497.616    -190.769     357.055
  C     -497.938    -189.675     357.794
  O     -497.341    -189.350     358.810
  C     -499.092    -188.891     357.303
  C     -499.676    -189.259     356.172
  O     -501.244    -185.970     353.542
  O     -499.883    -185.147     351.470
  H     -502.147    -186.220     353.815
  H     -501.209    -192.421     355.807
  H     -496.850    -191.338     357.396
  H     -499.413    -188.035     357.896
  H     -500.542    -188.712     355.793
  H     -499.379    -191.620     353.788
  H     -501.881    -190.301     354.997
  H     -502.973    -190.769     352.866
  H     -500.713    -190.072     351.350
  H     -502.736    -188.606     351.835
  H     -501.934    -188.062     353.317
  P     -502.343    -192.447     350.842
  C     -504.540    -193.665     351.610
  O     -503.905    -192.471     351.208
  O     -502.000    -194.012     350.659
  O     -501.932    -191.623     349.675
  H     -502.120    -194.519     351.474
  H     -505.515    -193.427     352.033
  H     -503.950    -194.182     352.368
  H     -504.683    -194.332     350.743
  H     -503.577    -184.792     349.844
  H     -502.420    -186.053     349.493
  H     -501.874    -184.413     349.752

 3  4  5  6  7  8  9  10  11  12  13  24  28  29  30  31  32 0
 6-311+G(2d,p)
 ****
 33  34 0
 6-311+G(2d,p)
 ****
 1  2  14  15  16  17  18  19  20  21  22  23  25  26  27 0
 3-21G
 ****
 35  36  37  38  39  40  41  42  43  44  45 0
 3-21G
 ****


