%nproc=1
%NoSave
%Mem=1900MB
#P OB98/GEN NMR

erre ene a

0 1
  C       26.751     -82.373      91.178
  O       26.184     -83.427      90.425
  H       25.944     -81.777      91.610
  H       27.358     -81.735      90.531
  H       27.367     -82.774      91.988
  P       27.213     -84.448      89.738
  C       25.426     -86.345      89.828
  O       26.311     -85.571      89.031
  C       24.676     -87.357      88.955
  O       23.612     -86.659      88.243
  C       25.561     -88.029      87.891
  O       25.049     -89.348      87.638
  C       25.306     -87.152      86.678
  O       25.720     -87.804      85.501
  C       23.808     -86.921      86.838
  N       22.205     -85.554      82.195
  C       22.550     -86.752      82.714
  N       22.959     -87.036      83.967
  C       22.967     -85.924      84.724
  C       22.646     -84.636      84.336
  C       22.254     -84.465      82.998
  N       21.923     -83.243      82.457
  N       22.804     -83.757      85.393
  C       23.208     -84.506      86.399
  N       23.318     -85.820      86.041
  O       27.861     -85.210      90.988
  O       28.248     -83.829      88.861
  H       25.503     -87.273      84.708
  H       28.680     -84.761      91.264
  H       22.491     -87.596      82.031
  H       23.441     -84.151      87.394
  H       23.218     -87.807      86.575
  H       25.861     -86.212      86.746
  H       26.614     -88.093      88.179
  H       24.193     -88.100      89.600
  H       24.715     -85.670      90.314
  H       25.999     -86.878      90.593
  H       21.679     -83.203      81.481
  H       21.988     -82.416      83.033
  P       25.677     -90.595      88.434
  C       23.488     -92.010      88.563
  O       24.838     -91.930      88.135
  O       25.260     -90.267      89.947
  O       27.159     -90.742      88.328
  H       26.026     -90.403      90.536
  H       23.081     -92.960      88.285
  H       22.920     -91.230      88.100
  H       23.444     -91.901      89.626

 6  7  8  9  10  11  12  13  14  15  25  28  32  33  34  35 0
 6-311+G(2d,p)
 ****
 36  37  40 0
 6-311+G(2d,p)
 ****
 1  2  3  4  5  16  17  18  19  20  21  22  23  24 0
 3-21G
 ****
 26  27  29  30  31  38  39 41  42  43  44  45  46  47  48 0
 3-21G
 ****


