%nproc=1
%NoSave
%Mem=1900MB
#P OB98/GEN NMR

erre ene a

0 1
  C      479.158      33.737     174.567
  O      478.645      33.243     175.787
  H      478.432      33.534     173.775
  H      480.094      33.226     174.320
  H      479.325      34.815     174.622
  P      479.432      33.573     177.146
  C      481.139      31.636     177.034
  O      480.932      33.040     176.954
  C      482.636      31.311     177.071
  O      483.242      31.773     175.822
  C      483.408      31.988     178.223
  O      484.500      31.117     178.566
  C      483.899      33.250     177.536
  O      484.865      33.935     178.289
  C      484.330      32.651     176.187
  N      484.589      33.617     175.130
  C      485.552      34.596     175.368
  O      486.198      34.700     176.410
  N      485.758      35.488     174.350
  C      485.121      35.489     173.139
  O      485.372      36.301     172.255
  C      484.111      34.438     172.949
  C      483.898      33.563     173.933
  O      478.762      33.135     178.406
  O      479.617      35.164     177.099
  H      478.959      35.586     177.683
  H      484.456      34.245     179.128
  H      486.453      36.199     174.504
  H      483.581      34.418     172.006
  H      483.166      32.765     173.820
  H      485.213      32.022     176.327
  H      483.071      33.948     177.407
  H      482.790      32.161     179.106
  H      482.761      30.221     177.098
  H      480.679      31.170     176.158
  H      480.651      31.253     177.938
  P      484.413      30.000     179.714
  C      486.349      30.759     181.261
  O      484.940      30.651     181.085
  O      485.092      28.718     179.361
  O      482.847      29.777     179.969
  H      482.698      28.874     180.311
  H      486.557      31.207     182.210
  H      486.760      31.367     180.482
  H      486.789      29.784     181.223

 6  7  8  9  10  11  12  13  14  15  16  27  31  32  33  34  35 0
 6-311+G(2d,p)
 ****
 36  37 0
 6-311+G(2d,p)
 ****
 1  2  3  4  5  17  18  19  20  21  22  23  24  25 0
 3-21G
 ****
 26  28  29  30  38  39  40  41  42  43  44  45 0
 3-21G
 ****


