%nproc=1
%NoSave
%Mem=1900MB
#P OB98/GEN NMR

erre ene a

0 1
  C     -324.784     948.052     697.701
  O     -324.946     947.216     696.572
  H     -325.394     948.947     697.566
  H     -323.734     948.354     697.798
  H     -325.109     947.542     698.615
  P     -324.304     945.755     696.596
  C     -323.479     945.966     694.153
  O     -324.281     945.234     695.079
  C     -324.098     945.919     692.749
  O     -324.581     944.563     692.501
  C     -325.289     946.866     692.551
  O     -325.306     947.251     691.162
  C     -326.455     945.942     692.880
  O     -327.695     946.484     692.509
  C     -325.979     944.680     692.145
  N     -326.691     943.460     692.470
  C     -327.420     942.836     691.459
  O     -327.488     943.250     690.302
  N     -328.090     941.698     691.812
  C     -328.095     941.120     693.046
  O     -328.685     940.080     693.299
  C     -327.320     941.818     694.077
  C     -326.662     942.936     693.754
  O     -324.891     944.795     697.578
  O     -322.752     946.029     696.903
  H     -322.559     945.838     697.841
  H     -328.377     945.771     692.543
  H     -328.617     941.235     691.089
  H     -327.309     941.399     695.076
  H     -326.080     943.469     694.489
  H     -326.014     944.841     691.058
  H     -326.503     945.773     693.955
  H     -325.241     947.762     693.175
  H     -323.310     946.115     692.014
  H     -322.480     945.517     694.137
  H     -323.401     947.003     694.496
  P     -325.720     948.722     690.659
  C     -326.583     947.730     688.431
  O     -325.755     948.701     689.057
  O     -324.881     949.815     691.236
  O     -327.253     948.891     691.085
  H     -327.457     949.847     691.197
  H     -326.510     947.830     687.368
  H     -327.598     947.878     688.734
  H     -326.264     946.750     688.720

 6  7  8  9  10  11  12  13  14  15  16  27  31  32  33  34  35 0
 6-311+G(2d,p)
 ****
 36  37 0
 6-311+G(2d,p)
 ****
 1  2  3  4  5  17  18  19  20  21  22  23  24  25 0
 3-21G
 ****
 26  28  29  30  38  39  40  41  42  43  44  45 0
 3-21G
 ****


