%nproc=1
%NoSave
%Mem=1900MB
#P OB98/GEN NMR

erre ene a

0 1
  C      382.516    -295.937    -889.940
  O      383.904    -295.853    -890.200
  H      382.342    -295.599    -888.910
  H      382.182    -296.971    -890.030
  H      381.951    -295.295    -890.620
  P      384.372    -296.219    -891.700
  C      384.957    -293.832    -892.510
  O      384.054    -294.927    -892.610
  C      384.197    -292.519    -892.760
  O      384.071    -292.298    -894.210
  C      382.771    -292.478    -892.170
  O      382.510    -291.132    -891.730
  C      381.900    -292.757    -893.370
  O      380.555    -292.305    -893.210
  C      382.678    -292.009    -894.460
  N      380.577    -290.408    -898.740
  C      380.875    -289.734    -897.570
  N      380.567    -288.415    -897.550
  N      381.433    -290.283    -896.540
  C      381.712    -291.594    -896.720
  C      381.468    -292.390    -897.810
  C      380.830    -291.765    -898.960
  O      380.518    -292.324    -900.000
  N      381.883    -293.675    -897.590
  C      382.385    -293.672    -896.370
  N      382.305    -292.427    -895.790
  O      383.270    -297.289    -892.160
  O      385.762    -296.763    -891.830
  H      380.575    -291.325    -893.180
  H      383.585    -298.193    -891.980
  H      380.144    -289.941    -899.510
  H      382.807    -294.524    -895.860
  H      382.534    -290.930    -894.410
  H      381.870    -293.835    -893.580
  H      380.181    -287.903    -898.330
  H      382.606    -293.176    -891.340
  H      380.813    -287.883    -896.720
  H      384.802    -291.692    -892.370
  H      385.733    -293.933    -893.260
  H      385.406    -293.814    -891.520
  P      382.205    -290.905    -890.170
  C      384.654    -290.105    -889.820
  O      383.592    -290.951    -889.380
  O      381.505    -292.286    -889.730
  O      381.326    -289.732    -889.890
  H      380.904    -292.129    -888.990
  H      385.509    -290.251    -889.194
  H      384.342    -289.083    -889.765
  H      384.907    -290.347    -890.831

 6  7  8  9  10  11  12  13  14  15  26  29  33  34 0
 6-311+G(2d,p)
 ****
 36  38  39  40  41 0
 6-311+G(2d,p)
 ****
 1  2  3  4  5  16  17  18  19  20  21  22  23  24  25 0
 3-21G
 ****
 27  28  30  31  32  35  37  42  43  44  45  46  47 0
 3-21G
 ****
 48  49 0
 3-21G
 ****


