%nproc=1
%NoSave
%Mem=1900MB
#P OB98/GEN NMR

erre ene a

0 1
  C     -134.785     245.205    -230.397
  O     -135.530     244.135    -230.964
  P     -135.101     243.476    -232.365
  C     -134.716     241.155    -231.322
  O     -134.117     242.274    -231.977
  C     -133.628     240.208    -230.814
  O     -132.981     240.824    -229.673
  C     -134.122     238.848    -230.310
  O     -134.307     237.874    -231.322
  C     -132.952     238.440    -229.419
  O     -131.873     237.939    -230.236
  C     -132.555     239.768    -228.776
  N     -131.825     239.534    -223.714
  C     -130.995     239.308    -224.765
  N     -131.271     239.376    -226.083
  C     -132.543     239.757    -226.281
  C     -133.503     240.026    -225.314
  C     -133.100     239.901    -223.974
  N     -133.939     240.159    -222.909
  N     -134.706     240.372    -225.909
  C     -134.464     240.326    -227.197
  N     -133.175     239.964    -227.474
  O     -134.578     244.447    -233.371
  O     -136.417     242.716    -232.859
  H     -132.108     237.023    -230.485
  H     -136.344     242.511    -233.814
  H     -129.973     239.027    -224.503
  H     -135.191     240.539    -227.968
  H     -131.471     239.869    -228.648
  H     -133.211     237.644    -228.713
  H     -135.023     238.954    -229.690
  H     -132.880     240.083    -231.604
  H     -135.344     240.633    -232.050
  H     -133.529     240.171    -221.994
  H     -134.833     240.588    -223.105
  H     -135.353     241.504    -230.503
  P     -135.734     237.140    -231.380
  C     -135.734     236.969    -233.995
  O     -136.341     237.482    -232.823
  O     -136.630     237.426    -230.222
  O     -135.328     235.596    -231.508
  H     -134.898     235.347    -232.341
  H     -136.387     237.180    -234.843
  H     -135.595     235.881    -233.921
  H     -134.767     237.457    -234.156
  H     -135.232     245.499    -229.470
  H     -134.784     246.036    -231.071
  H     -133.779     244.886    -230.223

 3  4  5  6  7  8  9  10  11  12  22  25  29  30  31  32 0
 6-311+G(2d,p)
 ****
 33  36  37 0
 6-311+G(2d,p)
 ****
 1  2  13  14  15  16  17  18  19  20  21  23  24  26 0
 3-21G
 ****
 27  28  34  35  38  39  40  41  42  43  44  45  46  47  48 0
 3-21G
 ****


