%nproc=1
%NoSave
%Mem=1900MB
#P OB98/GEN NMR

erre ene a

0 1
  C     -176.155     225.909       9.848
  O     -175.525     225.391       8.697
  H     -175.901     225.273      10.702
  H     -177.239     225.897       9.711
  H     -175.823     226.930      10.062
  P     -175.341     226.343       7.426
  C     -176.984     225.892       5.485
  O     -176.778     226.541       6.734
  C     -177.540     224.480       5.666
  O     -178.684     224.518       6.546
  C     -178.015     223.863       4.347
  O     -177.004     223.197       3.611
  C     -179.083     222.881       4.825
  O     -178.509     221.602       5.145
  C     -179.640     223.550       6.087
  N     -184.610     222.949       5.042
  C     -183.595     222.011       4.989
  N     -183.949     220.777       4.570
  N     -182.353     222.279       5.303
  C     -182.136     223.580       5.605
  C     -183.058     224.601       5.671
  C     -184.443     224.281       5.395
  O     -185.381     225.069       5.443
  N     -182.462     225.802       5.972
  C     -181.173     225.519       6.003
  N     -180.934     224.172       5.866
  O     -174.576     225.410       6.368
  O     -174.568     227.605       7.671
  H     -177.844     221.738       5.846
  H     -173.998     225.957       5.807
  H     -185.552     222.677       4.817
  H     -180.380     226.240       6.163
  H     -179.770     222.824       6.899
  H     -179.828     222.706       4.045
  H     -184.868     220.541       4.236
  H     -178.503     224.617       3.720
  H     -183.204     220.116       4.338
  H     -176.783     223.851       6.151
  H     -176.009     225.850       4.994
  H     -177.647     226.488       4.852
  P     -177.178     222.913       2.047
  C     -177.810     220.488       1.257
  O     -178.199     221.700       1.866
  O     -175.769     222.274       1.637
  O     -177.520     224.102       1.211
  H     -175.195     222.948       1.229
  H     -178.642     219.816       1.237
  H     -177.010     220.049       1.815
  H     -177.483     220.680       0.256

 6  7  8  9  10  11  12  13  14  15  26  29  33  34 0
 6-311+G(2d,p)
 ****
 36  38  39  40  41 0
 6-311+G(2d,p)
 ****
 1  2  3  4  5  16  17  18  19  20  21  22  23  24  25 0
 3-21G
 ****
 27  28  30  31  32  35  37  42  43  44  45  46  47 0
 3-21G
 ****
 48  49 0
 3-21G
 ****


