%nproc=1
%NoSave
%Mem=1900MB
#P OB98/GEN NMR

erre ene a

0 1
  C      -41.255     302.083    -174.527
  O      -42.169     301.270    -173.821
  P      -43.128     301.826    -172.669
  C      -44.769     299.827    -172.890
  O      -43.924     300.584    -172.033
  C      -44.515     298.312    -172.797
  O      -43.247     297.999    -173.404
  C      -44.414     297.884    -171.331
  O      -45.584     297.621    -170.581
  C      -43.377     296.768    -171.315
  O      -43.971     295.468    -171.311
  C      -42.596     296.991    -172.614
  N      -37.915     295.452    -171.415
  C      -39.000     294.694    -171.810
  N      -38.873     293.357    -171.682
  N      -40.118     295.215    -172.261
  C      -40.128     296.569    -172.234
  C      -39.110     297.422    -171.885
  C      -37.870     296.838    -171.428
  O      -36.910     297.468    -170.987
  N      -39.504     298.736    -171.914
  C      -40.781     298.679    -172.247
  N      -41.213     297.381    -172.417
  O      -43.881     303.082    -172.968
  O      -42.061     302.173    -171.508
  H      -44.402     295.337    -170.448
  H      -42.389     302.961    -171.031
  H      -37.108     294.996    -171.001
  H      -41.433     299.535    -172.345
  H      -42.584     296.076    -173.223
  H      -42.757     296.825    -170.413
  H      -38.088     292.933    -171.204
  H      -43.938     298.715    -170.791
  H      -39.703     292.787    -171.800
  H      -45.266     297.755    -173.368
  H      -44.605     300.181    -173.910
  H      -45.814     300.029    -172.644
  P      -45.873     298.076    -169.075
  C      -48.328     298.570    -169.590
  O      -47.426     297.855    -168.768
  O      -45.735     299.671    -169.112
  O      -44.941     297.503    -168.055
  H      -45.550     300.009    -168.211
  H      -49.309     298.589    -169.120
  H      -48.410     298.068    -170.560
  H      -47.984     299.599    -169.745
  H      -40.729     301.488    -175.244
  H      -40.557     302.514    -173.840
  H      -41.787     302.862    -175.032

 3  4  5  6  7  8  9  10  11  12  23  26  30  31 0
 6-311+G(2d,p)
 ****
 33  35  36  37  38 0
 6-311+G(2d,p)
 ****
 1  2  13  14  15  16  17  18  19  20  21  22  24  25 0
 3-21G
 ****
 27  28  29  32  34  39  40  41  42  43  44  45  46  47  48  49 0
 3-21G
 ****


