%nproc=1
%NoSave
%Mem=1900MB
#P OB98/GEN NMR

erre ene a

0 1
  C     -438.423    -534.678     325.776
  O     -437.781    -535.926     325.568
  P     -438.221    -537.147     326.511
  C     -437.022    -536.119     328.582
  O     -437.144    -537.226     327.695
  C     -436.051    -536.460     329.709
  O     -436.631    -537.447     330.584
  C     -434.724    -537.049     329.251
  O     -433.876    -536.045     328.724
  C     -434.232    -537.677     330.556
  O     -433.672    -536.670     331.410
  C     -435.546    -538.221     331.161
  N     -433.466    -542.896     331.405
  C     -432.984    -541.675     331.737
  N     -433.596    -540.475     331.623
  C     -434.828    -540.605     331.116
  C     -435.445    -541.782     330.713
  C     -434.714    -542.974     330.872
  N     -435.209    -544.209     330.539
  N     -436.706    -541.530     330.211
  C     -436.852    -540.223     330.320
  N     -435.753    -539.626     330.873
  O     -437.884    -538.436     325.620
  O     -439.653    -537.126     326.943
  H     -433.400    -537.117     332.239
  H     -438.534    -539.147     325.782
  H     -431.982    -541.658     332.151
  H     -437.733    -539.671     330.019
  H     -435.591    -538.096     332.247
  H     -433.463    -538.443     330.400
  H     -434.893    -537.833     328.501
  H     -435.883    -535.543     330.298
  H     -437.998    -535.887     329.015
  H     -434.564    -544.984     330.547
  H     -436.070    -544.250     330.012
  H     -436.677    -535.251     328.011
  P     -432.873    -536.479     327.543
  C     -430.908    -536.983     329.115
  O     -431.418    -536.118     328.115
  O     -433.124    -535.319     326.467
  O     -433.056    -537.876     327.051
  H     -433.086    -534.437     326.867
  H     -429.900    -536.654     329.378
  H     -430.869    -538.011     328.760
  H     -431.538    -536.928     330.016
  H     -438.037    -533.959     325.084
  H     -438.240    -534.345     326.776
  H     -439.476    -534.789     325.624

 3  4  5  6  7  8  9  10  11  12  22  25  29  30  31  32 0
 6-311+G(2d,p)
 ****
 33  36  37 0
 6-311+G(2d,p)
 ****
 1  2  13  14  15  16  17  18  19  20  21  23  24  26 0
 3-21G
 ****
 27  28  34  35  38  39  40  41  42  43  44  45  46  47  48 0
 3-21G
 ****


