%nproc=1
%NoSave
%Mem=1900MB
#P OB98/GEN NMR

erre ene a

0 1
  C     -418.527     -69.761     173.903
  O     -418.395     -70.309     175.207
  P     -416.901     -70.562     175.757
  C     -416.204     -73.023     176.166
  O     -416.474     -72.001     175.208
  C     -417.502     -73.657     176.653
  O     -418.387     -73.881     175.533
  C     -417.330     -75.026     177.305
  O     -416.917     -74.913     178.666
  C     -418.742     -75.577     177.203
  O     -419.548     -75.055     178.284
  C     -419.221     -75.017     175.855
  N     -421.672     -78.688     173.353
  C     -422.085     -77.903     174.419
  N     -423.343     -78.123     174.867
  N     -421.331     -77.006     174.999
  C     -420.111     -76.873     174.423
  C     -419.580     -77.586     173.367
  C     -420.404     -78.619     172.770
  O     -420.068     -79.379     171.869
  N     -418.318     -77.159     173.057
  C     -418.097     -76.163     173.898
  N     -419.142     -75.973     174.769
  O     -417.130     -70.803     177.322
  O     -415.937     -69.444     175.498
  H     -419.128     -75.338     179.111
  H     -416.311     -70.570     177.812
  H     -422.289     -79.352     172.938
  H     -417.196     -75.556     173.912
  H     -420.250     -74.647     175.926
  H     -418.778     -76.673     177.287
  H     -424.010     -78.708     174.377
  H     -416.649     -75.657     176.726
  H     -423.680     -77.535     175.620
  H     -417.994     -72.958     177.344
  H     -415.686     -72.581     177.023
  H     -415.550     -73.774     175.718
  P     -416.433     -76.270     179.381
  C     -418.116     -77.346     181.037
  O     -417.774     -77.087     179.687
  O     -415.946     -75.758     180.818
  O     -415.365     -77.002     178.644
  H     -415.280     -76.373     181.192
  H     -417.850     -76.520     181.689
  H     -417.616     -78.256     181.371
  H     -419.196     -77.506     181.097
  H     -419.564     -69.647     173.668
  H     -418.070     -70.418     173.192
  H     -418.046     -68.806     173.867

 3  4  5  6  7  8  9  10  11  12  23  26  30  31  33  0
 6-311+G(2d,p)
 ****
 35  36  37  38 0
 6-311+G(2d,p)
 ****
 1  2  13  14  15  16  17  18  19  20  21  22  24  25  27  28  29 0
 3-21G
 ****
 32  34  39  40  41  42  43  44  45  46  47  48  49 0
 3-21G
 ****


