%nproc=1
%NoSave
%Mem=1900MB
#P OB98/GEN NMR

erre ene a

0 1
  C      -39.609     -78.035     -35.656
  O      -40.097     -79.245     -35.123
  P      -39.176     -80.503     -34.790
  C      -37.232     -80.880     -33.084
  O      -37.889     -79.993     -33.980
  C      -35.754     -81.052     -33.464
  O      -35.681     -81.822     -34.691
  C      -35.082     -79.698     -33.744
  O      -33.768     -79.581     -33.215
  C      -35.243     -79.544     -35.251
  O      -34.337     -78.618     -35.828
  C      -35.116     -80.988     -35.725
  N      -36.100     -79.453     -40.467
  C      -35.168     -78.967     -39.572
  N      -34.552     -77.817     -39.921
  N      -34.898     -79.541     -38.428
  C      -35.673     -80.619     -38.166
  C      -36.626     -81.192     -38.975
  C      -36.890     -80.569     -40.249
  O      -37.788     -80.900     -41.025
  N      -37.261     -82.235     -38.354
  C      -36.719     -82.273     -37.153
  N      -35.772     -81.288     -36.981
  O      -38.969     -81.491     -35.891
  O      -40.033     -81.235     -33.632
  H      -34.594     -77.727     -35.528
  H      -39.892     -82.197     -33.737
  H      -36.321     -78.921     -41.300
  H      -36.991     -82.965     -36.366
  H      -34.071     -81.276     -35.854
  H      -36.252     -79.159     -35.436
  H      -34.845     -77.278     -40.724
  H      -35.627     -78.890     -33.245
  H      -34.061     -77.315     -39.187
  H      -35.244     -81.621     -32.680
  H      -37.755     -81.840     -33.161
  H      -37.328     -80.527     -32.055
  P      -33.045     -78.297     -32.602
  C      -33.549     -76.499     -30.844
  O      -34.082     -77.531     -31.653
  O      -32.878     -77.288     -33.832
  O      -31.717     -78.568     -31.975
  H      -32.012     -76.841     -33.772
  H      -34.276     -76.254     -30.065
  H      -33.369     -75.610     -31.454
  H      -32.615     -76.818     -30.372
  H      -40.421     -77.351     -35.789
  H      -39.143     -78.224     -36.601
  H      -38.893     -77.612     -34.983

 3  4  5  6  7  8  9  10  11  12  23  26  30  31 0
 6-311+G(2d,p)
 ****
 33  35  36  37  38 0
 6-311+G(2d,p)
 ****
 1  2  13  14  15  16  17  18  19  20  21  22  24  25 0
 3-21G
 ****
 27  28  29  32  34  39  40  41  42  43  44  45  46  47  48  49 0
 3-21G
 ****


