%nproc=1
%NoSave
%Mem=1900MB
#P OB98/GEN NMR

erre ene a

0 1
  C      548.772     298.537    -254.998
  O      548.366     297.246    -255.404
  H      549.362     298.446    -254.081
  H      547.900     299.166    -254.794
  H      549.396     299.001    -255.769
  P      547.428     297.105    -256.694
  C      549.190     296.704    -258.538
  O      548.187     296.122    -257.714
  C      549.419     295.837    -259.785
  O      550.353     296.540    -260.639
  C      550.017     294.464    -259.442
  O      549.276     293.378    -259.991
  C      551.477     294.604    -259.857
  O      552.109     293.384    -260.197
  C      551.415     295.629    -260.992
  N      552.670     296.359    -261.199
  C      553.622     295.769    -262.030
  O      553.481     294.704    -262.623
  N      554.787     296.480    -262.182
  C      555.089     297.671    -261.600
  O      556.148     298.262    -261.778
  C      554.050     298.231    -260.714
  C      552.906     297.559    -260.552
  O      546.960     298.388    -257.296
  O      546.201     296.210    -256.186
  H      553.053     293.573    -260.362
  H      545.424     296.783    -256.021
  H      555.478     296.068    -262.792
  H      554.263     299.170    -260.221
  H      552.119     297.939    -259.912
  H      551.153     295.149    -261.933
  H      552.039     295.029    -259.014
  H      549.975     294.279    -258.361
  H      548.475     295.744    -260.329
  H      550.111     296.776    -257.950
  H      548.882     297.711    -258.841
  P      548.236     292.478    -259.173
  C      546.016     293.690    -259.860
  O      546.826     292.529    -259.930
  O      548.223     292.693    -257.697
  O      548.757     290.977    -259.439
  H      548.551     290.461    -258.633
  H      545.120     293.535    -260.425
  H      546.552     294.524    -260.263
  H      545.764     293.888    -258.839

 6  7  8  9  10  11  12  13  14  15  16  26  31  32  33  34  35 0
 6-311+G(2d,p)
 ****
 36  37 0
 6-311+G(2d,p)
 ****
 1  2  3  4  5  17  18  19  20  21  22  23  24  25 0
 3-21G
 ****
 27  28  29  30  38  39  40  41  42  43  44  45 0
 3-21G
 ****


