%nproc=1
%NoSave
%Mem=1900MB
#P OB98/GEN NMR

erre ene a

0 1
  C      417.068    -316.308     293.741
  O      416.573    -317.399     292.971
  P      417.436    -318.749     292.960
  C      415.358    -320.337     292.743
  O      416.579    -319.871     292.200
  C      414.206    -319.363     292.428
  O      414.107    -319.222     290.987
  C      412.825    -319.820     292.887
  O      411.957    -318.684     292.921
  C      412.411    -320.733     291.757
  O      411.003    -320.958     291.748
  C      412.980    -320.007     290.516
  N      413.417    -320.927     289.442
  C      412.449    -321.481     288.609
  O      411.244    -321.256     288.712
  N      412.901    -322.349     287.653
  C      414.202    -322.684     287.425
  O      414.546    -323.535     286.614
  C      415.193    -321.965     288.237
  C      414.765    -321.143     289.196
  O      417.426    -319.216     294.488
  O      418.820    -318.571     292.435
  H      410.579    -320.088     291.563
  H      418.292    -319.039     294.901
  H      412.204    -322.812     287.085
  H      416.241    -322.152     288.040
  H      415.487    -320.617     289.819
  H      412.239    -319.328     290.079
  H      412.894    -321.709     291.872
  H      412.812    -320.330     293.853
  H      414.446    -318.379     292.842
  H      415.459    -320.470     293.822
  H      415.124    -321.323     292.327
  P      411.522    -318.110     294.355
  C      411.638    -315.547     294.234
  O      410.826    -316.695     294.085
  O      412.580    -318.121     295.410
  O      410.281    -319.045     294.751
  H      410.125    -318.994     295.714
  H      411.270    -314.763     293.565
  H      412.684    -315.760     293.994
  H      411.572    -315.193     295.269
  H      416.397    -315.479     293.658
  H      418.033    -316.023     293.377
  H      417.146    -316.602     294.767

 3  4  5  6  7  8  9  10  11  12  13  23  28  29  30  31  32 0
 6-311+G(2d,p)
 ****
 33  34 0
 6-311+G(2d,p)
 ****
 1  2  14  15  16  17  18  19  20  21  22  24  25  26  27 0
 3-21G
 ****
 35  36  37  38  39  40  41  42  43  44  45 0
 3-21G
 ****


