%nproc=1
%NoSave
%Mem=1900MB
#P OB98/GEN NMR

erre ene a

0 1
  C     -124.552     -42.988    -144.927
  O     -123.539     -42.872    -143.919
  P     -123.981     -42.374    -142.463
  C     -123.135     -42.709    -140.026
  O     -122.868     -42.852    -141.414
  C     -122.432     -43.814    -139.233
  O     -123.022     -45.110    -139.483
  C     -120.953     -43.959    -139.568
  O     -120.157     -43.019    -138.857
  C     -120.674     -45.364    -139.057
  O     -120.490     -45.337    -137.627
  C     -121.968     -46.103    -139.416
  N     -121.040     -50.570    -141.600
  C     -121.049     -50.217    -140.265
  N     -120.778     -51.201    -139.380
  N     -121.301     -49.009    -139.836
  C     -121.571     -48.131    -140.830
  C     -121.591     -48.361    -142.187
  C     -121.295     -49.698    -142.652
  O     -121.258     -50.065    -143.821
  N     -121.899     -47.220    -142.882
  C     -122.087     -46.307    -141.948
  N     -121.882     -46.808    -140.686
  O     -125.221     -43.328    -142.120
  O     -124.360     -40.931    -142.395
  H     -121.216     -44.796    -137.261
  H     -125.830     -42.873    -141.509
  H     -120.834     -51.515    -141.876
  H     -122.370     -45.280    -142.133
  H     -122.255     -46.838    -138.657
  H     -119.760     -45.789    -139.485
  H     -120.626     -52.164    -139.640
  H     -120.782     -43.909    -140.651
  H     -120.816     -50.970    -138.396
  H     -122.537     -43.585    -138.165
  H     -124.211     -42.747    -139.840
  H     -122.812     -41.716    -139.704
  P     -119.558     -41.777    -139.673
  C     -118.480     -39.582    -138.802
  O     -118.629     -40.978    -138.644
  O     -120.834     -40.828    -139.862
  O     -118.933     -42.130    -140.980
  H     -120.760     -40.332    -140.699
  H     -117.954     -39.185    -137.930
  H     -119.453     -39.092    -138.877
  H     -117.886     -39.367    -139.697
  H     -124.110     -43.329    -145.840
  H     -125.008     -42.033    -145.086
  H     -125.295     -43.689    -144.607

 3  4  5  6  7  8  9  10  11  12  23  26  30  31 0
 6-311+G(2d,p)
 ****
 33  35  36  37  38 0
 6-311+G(2d,p)
 ****
 1  2  13  14  15  16  17  18  19  20  21  22  24  25 0
 3-21G
 ****
 27  28  29  32  34  39  40  41  42  43  44  45  46  47  48  49 0
 3-21G
 ****


