%nproc=1
%NoSave
%Mem=1900MB
#P OB98/GEN NMR

erre ene a

0 1
  C       71.076     -40.646      61.948
  O       69.665     -40.645      61.899
  H       71.394     -41.266      62.790
  H       71.454     -39.632      62.101
  H       71.493     -41.066      61.029
  P       68.940     -39.798      60.745
  C       68.993     -41.406      58.714
  O       69.620     -40.325      59.386
  C       69.202     -41.285      57.208
  O       68.511     -40.135      56.673
  C       70.651     -41.094      56.776
  O       71.439     -42.267      56.879
  C       70.440     -40.664      55.335
  O       70.099     -41.810      54.534
  C       69.237     -39.706      55.487
  N       69.643     -38.307      55.612
  C       69.918     -37.626      54.421
  O       69.827     -38.196      53.335
  N       70.327     -36.315      54.486
  C       70.472     -35.743      55.642
  N       70.886     -34.446      55.649
  C       70.212     -36.429      56.921
  C       69.804     -37.693      56.835
  O       68.934     -38.314      60.926
  O       67.476     -40.435      60.639
  H       70.811     -42.463      54.657
  H       66.981     -39.938      59.943
  H       70.376     -35.918      57.857
  H       69.598     -38.266      57.732
  H       68.552     -39.801      54.636
  H       71.324     -40.209      54.887
  H       71.116     -40.263      57.321
  H       68.757     -42.173      56.742
  H       71.057     -34.002      54.756
  H       67.928     -41.392      58.965
  H       71.098     -33.947      56.502
  H       69.423     -42.355      59.047
  P       73.033     -42.086      56.764
  C       73.464     -41.744      59.317
  O       73.473     -41.187      58.013
  O       73.197     -41.117      55.505
  O       73.808     -43.358      56.618
  H       73.414     -41.628      54.701
  H       73.785     -41.006      60.022
  H       74.128     -42.582      59.351
  H       72.473     -42.064      59.561

 6  7  8  9  10  11  12  13  14  15  16  26  30  31  32  33  35 0
 6-311+G(2d,p)
 ****
 37  38 0
 6-311+G(2d,p)
 ****
 1  2  3  4  5  17  18  19  20  21  22  23  24  25 0
 3-21G
 ****
 27  28  29  34  36  39  40  41  42  43  44  45  46 0
 3-21G
 ****


