%nproc=1
%NoSave
%Mem=1900MB
#P OB98/GEN NMR

erre ene a

0 1
  C      -32.061      30.479      76.732
  O      -31.568      31.673      77.336
  P      -30.264      31.769      78.253
  C      -31.465      30.775      80.373
  O      -30.395      30.705      79.442
  C      -30.940      30.856      81.816
  O      -29.977      29.778      82.024
  C      -30.209      32.175      82.100
  O      -30.515      32.734      83.378
  C      -28.754      31.826      81.829
  O      -27.833      32.724      82.431
  C      -28.686      30.372      82.299
  N      -23.666      29.482      81.957
  C      -24.333      30.475      82.645
  N      -23.570      31.362      83.323
  N      -25.634      30.601      82.658
  C      -26.274      29.700      81.880
  C      -25.721      28.675      81.136
  C      -24.285      28.514      81.168
  O      -23.642      27.641      80.593
  N      -26.690      27.960      80.479
  C      -27.821      28.553      80.806
  N      -27.620      29.617      81.664
  O      -29.833      33.150      78.630
  O      -29.101      31.135      77.329
  H      -26.944      32.509      82.093
  H      -28.276      31.601      77.567
  H      -22.661      29.416      82.003
  H      -28.806      28.252      80.467
  H      -28.506      30.294      83.373
  H      -28.597      31.884      80.742
  H      -22.567      31.397      83.258
  H      -30.528      32.955      81.401
  H      -24.048      32.210      83.639
  H      -31.777      30.700      82.506
  H      -32.045      29.853      80.240
  H      -32.125      31.615      80.144
  P      -31.758      33.642      83.798
  C      -30.767      35.693      82.619
  O      -31.895      34.842      82.746
  O      -31.297      34.388      85.138
  O      -33.031      32.887      84.042
  H      -31.885      34.131      85.878
  H      -31.074      36.599      82.089
  H      -29.993      35.186      82.033
  H      -30.374      35.969      83.600
  H      -32.946      30.701      76.173
  H      -32.290      29.763      77.493
  H      -31.317      30.077      76.076

 3  4  5  6  7  8  9  10  11  12  23  26  30  31 0
 6-311+G(2d,p)
 ****
 33  35  36  37  38 0
 6-311+G(2d,p)
 ****
 1  2  13  14  15  16  17  18  19  20  21  22  24  25 0
 3-21G
 ****
 27  28  29  32  34  39  40  41  42  43  44  45  46  47  48  49 0
 3-21G
 ****


