%nproc=1
%NoSave
%Mem=1900MB
#P OB98/GEN NMR

erre ene a

0 1
  C      -30.775    -125.377     -45.548
  O      -30.475    -124.031     -45.246
  H      -31.248    -125.835     -44.676
  H      -29.857    -125.925     -45.775
  H      -31.466    -125.443     -46.393
  P      -29.942    -123.077     -46.417
  C      -27.680    -122.078     -45.677
  O      -29.089    -121.916     -45.716
  C      -27.103    -121.510     -44.375
  O      -27.156    -122.550     -43.351
  C      -25.633    -121.054     -44.480
  O      -25.460    -119.980     -43.546
  C      -24.912    -122.309     -44.023
  O      -23.549    -122.086     -43.764
  C      -25.812    -122.699     -42.843
  N      -25.607    -124.042     -42.316
  C      -24.801    -124.180     -41.190
  O      -24.253    -123.247     -40.605
  N      -24.629    -125.461     -40.735
  C      -25.181    -126.586     -41.274
  O      -25.017    -127.705     -40.805
  C      -26.016    -126.378     -42.466
  C      -26.194    -125.136     -42.922
  O      -30.971    -122.606     -47.390
  O      -28.814    -123.959     -47.137
  H      -29.171    -124.336     -47.963
  H      -23.146    -122.918     -43.433
  H      -24.052    -125.580     -39.919
  H      -26.461    -127.250     -42.925
  H      -26.812    -124.950     -43.794
  H      -25.696    -121.974     -42.030
  H      -24.947    -123.067     -44.808
  H      -25.361    -120.714     -45.483
  H      -27.746    -120.692     -44.030
  H      -27.250    -121.546     -46.533
  H      -27.438    -123.143     -45.762
  P      -25.230    -118.454     -43.986
  C      -23.082    -117.521     -42.883
  O      -24.490    -117.693     -42.780
  O      -26.469    -117.767     -44.459
  O      -24.124    -118.509     -45.141
  H      -24.225    -117.736     -45.727
  H      -22.722    -117.003     -42.019
  H      -22.855    -116.952     -43.760
  H      -22.609    -118.479     -42.948

 6  7  8  9  10  11  12  13  14  15  16  27  31  32  33  34  35 0
 6-311+G(2d,p)
 ****
 36  37 0
 6-311+G(2d,p)
 ****
 1  2  3  4  5  17  18  19  20  21  22  23  24  25 0
 3-21G
 ****
 26  28  29  30  38  39  40  41  42  43  44  45 0
 3-21G
 ****


