%nproc=1
%NoSave
%Mem=1900MB
#P OB98/GEN NMR

erre ene a

0 1
  C     -289.020    -986.791    -161.673
  O     -290.000    -985.868    -162.107
  H     -288.353    -986.285    -160.968
  H     -288.423    -987.135    -162.523
  H     -289.483    -987.642    -161.169
  P     -291.195    -986.395    -163.034
  C     -293.029    -986.347    -161.212
  O     -292.232    -987.155    -162.074
  C     -294.497    -986.719    -161.366
  O     -295.013    -986.220    -162.619
  C     -294.759    -988.217    -161.380
  O     -294.685    -988.770    -160.077
  C     -296.146    -988.264    -162.012
  O     -297.158    -987.980    -161.038
  C     -296.048    -987.124    -163.053
  N     -295.784    -987.619    -164.405
  C     -296.788    -988.388    -164.993
  O     -297.829    -988.694    -164.415
  N     -296.525    -988.844    -166.260
  C     -295.351    -988.692    -166.940
  O     -295.144    -989.193    -168.041
  C     -294.321    -987.890    -166.261
  C     -294.584    -987.398    -165.050
  O     -290.787    -987.160    -164.249
  O     -291.987    -985.059    -163.423
  H     -297.205    -988.768    -160.453
  H     -291.784    -984.823    -164.350
  H     -297.237    -989.415    -166.693
  H     -293.389    -987.735    -166.776
  H     -293.837    -986.808    -164.531
  H     -296.984    -986.551    -163.076
  H     -296.372    -989.235    -162.437
  H     -294.049    -988.715    -162.048
  H     -295.059    -986.236    -160.553
  H     -292.882    -985.295    -161.481
  H     -292.693    -986.496    -160.180
  P     -294.608    -990.354    -159.882
  C     -292.041    -990.362    -159.872
  O     -293.218    -990.866    -160.501
  O     -295.818    -991.103    -160.338
  O     -294.395    -990.533    -158.310
  H     -295.140    -991.044    -157.939
  H     -291.177    -990.763    -160.359
  H     -292.036    -990.650    -158.842
  H     -292.027    -989.294    -159.944

 6  7  8  9  10  11  12  13  14  15  16  26  31  32  33  34  35 0
 6-311+G(2d,p)
 ****
 36  37 0
 6-311+G(2d,p)
 ****
 1  2  3  4  5  17  18  19  20  21  22  23  24  25 0
 3-21G
 ****
 27  28  29  30  38  39  40  41  42  43  44  45 0
 3-21G
 ****


