%nproc=1
%NoSave
%Mem=1900MB
#P OB98/GEN NMR

erre ene a

0 1
  C       82.572      21.441     -51.089
  O       83.109      22.711     -51.391
  H       81.957      21.528     -50.188
  H       83.375      20.726     -50.894
  H       81.943      21.080     -51.907
  P       83.946      22.895     -52.745
  C       81.711      23.153     -53.999
  O       82.970      22.494     -53.952
  C       81.510      23.792     -55.370
  O       80.179      24.343     -55.476
  C       82.463      24.946     -55.658
  O       83.755      24.468     -55.970
  C       81.730      25.632     -56.802
  O       81.951      24.943     -58.042
  C       80.256      25.488     -56.356
  N       79.741      26.692     -55.702
  C       79.205      27.663     -56.540
  O       79.157      27.548     -57.762
  N       78.763      28.804     -55.923
  C       78.889      29.092     -54.595
  O       78.683      30.206     -54.124
  C       79.393      28.000     -53.750
  C       79.804      26.873     -54.334
  O       85.286      22.240     -52.772
  O       84.068      24.485     -52.898
  H       84.954      24.770     -52.606
  H       81.350      25.351     -58.695
  H       78.416      29.535     -56.527
  H       79.448      28.166     -52.682
  H       80.208      26.065     -53.734
  H       79.615      25.269     -57.219
  H       82.057      26.663     -56.946
  H       82.496      25.628     -54.801
  H       81.611      23.006     -56.131
  H       81.696      23.932     -53.229
  H       80.918      22.428     -53.787
  P       84.839      25.410     -56.673
  C       86.043      26.051     -54.504
  O       85.292      26.524     -55.614
  O       84.439      25.949     -58.006
  O       86.141      24.484     -56.801
  H       86.445      24.487     -57.729
  H       86.291      26.873     -53.865
  H       86.942      25.587     -54.853
  H       85.462      25.338     -53.958

 6  7  8  9  10  11  12  13  14  15  16  27  31  32  33  34  35 0
 6-311+G(2d,p)
 ****
 36  37 0
 6-311+G(2d,p)
 ****
 1  2  3  4  5  17  18  19  20  21  22  23  24  25 0
 3-21G
 ****
 26  28  29  30  38  39  40  41  42  43  44  45 0
 3-21G
 ****


