%nproc=1
%NoSave
%Mem=1900MB
#P OB98/GEN NMR

erre ene a

0 1
  C      -57.020      24.196      -5.671
  O      -58.324      24.727      -5.550
  H      -56.315      24.894      -5.211
  H      -56.755      24.077      -6.724
  H      -56.943      23.233      -5.158
  P      -59.568      23.837      -6.027
  C      -60.031      25.300      -8.099
  O      -59.678      24.008      -7.618
  C      -61.105      25.178      -9.176
  O      -60.585      24.471     -10.325
  C      -62.339      24.399      -8.732
  O      -63.151      25.183      -7.882
  C      -62.951      24.057     -10.081
  O      -63.668      25.177     -10.623
  C      -61.689      23.759     -10.928
  N      -61.399      22.327     -11.031
  C      -62.129      21.622     -11.983
  O      -62.975      22.142     -12.707
  N      -61.881      20.275     -12.046
  C      -61.064      19.575     -11.204
  O      -61.040      18.350     -11.153
  C      -60.266      20.383     -10.270
  C      -60.478      21.699     -10.217
  O      -60.842      24.050      -5.279
  O      -59.038      22.333      -5.866
  H      -59.399      21.950      -5.044
  H      -64.413      25.350     -10.014
  H      -62.440      19.746     -12.699
  H      -59.558      19.872      -9.631
  H      -59.922      22.311      -9.516
  H      -61.808      24.158     -11.944
  H      -63.657      23.226     -10.019
  H      -62.037      23.469      -8.234
  H      -61.381      26.190      -9.499
  H      -59.137      25.767      -8.528
  H      -60.385      25.910      -7.262
  P      -63.946      24.527      -6.658
  C      -66.237      24.364      -7.795
  O      -65.137      23.640      -7.258
  O      -64.362      25.481      -5.588
  O      -62.936      23.426      -6.077
  H      -62.820      23.572      -5.120
  H      -66.969      23.677      -8.165
  H      -65.897      24.988      -8.595
  H      -66.673      24.971      -7.029

 6  7  8  9  10  11  12  13  14  15  16  27  31  32  33  34  35 0
 6-311+G(2d,p)
 ****
 36  37 0
 6-311+G(2d,p)
 ****
 1  2  3  4  5  17  18  19  20  21  22  23  24  25 0
 3-21G
 ****
 26  28  29  30  38  39  40  41  42  43  44  45 0
 3-21G
 ****


