%nproc=1
%NoSave
%Mem=1900MB
#P OB98/GEN NMR

erre ene a

0 1
  C      832.388      66.113     188.970
  O      830.980      66.181     189.073
  H      832.831      66.601     189.842
  H      832.723      66.630     188.067
  H      832.722      65.068     188.943
  P      830.121      65.327     188.025
  C      829.950      62.765     187.632
  O      830.111      63.815     188.568
  C      829.808      61.428     188.367
  O      831.013      61.204     189.155
  C      828.610      61.364     189.323
  O      828.077      60.037     189.291
  C      829.242      61.614     190.681
  O      828.483      61.109     191.771
  C      830.593      60.910     190.504
  N      831.588      61.359     191.473
  C      832.000      60.442     192.439
  O      831.649      59.265     192.481
  N      832.860      60.930     193.391
  C      833.314      62.216     193.482
  O      834.063      62.594     194.375
  C      832.836      63.137     192.441
  C      832.012      62.674     191.504
  O      831.080      65.256     186.745
  O      828.770      65.881     187.700
  H      830.916      66.012     186.154
  H      827.692      61.675     191.863
  H      833.166      60.282     194.098
  H      833.170      64.172     192.490
  H      831.622      63.334     190.732
  H      830.465      59.820     190.579
  H      829.382      62.693     190.834
  H      827.818      62.084     189.098
  H      829.753      60.620     187.622
  H      830.823      62.718     186.977
  H      829.059      62.959     187.020
  P      826.700      59.811     188.492
  C      826.164      60.960     186.199
  O      827.040      60.139     186.961
  O      825.846      61.066     188.992
  O      826.086      58.475     188.756
  H      826.389      61.867     189.134
  H      826.550      61.068     185.207
  H      826.087      61.923     186.659
  H      825.196      60.506     186.158

 6  7  8  9  10  11  12  13  14  15  16  27  31  32  33  34  35 0
 6-311+G(2d,p)
 ****
 36  37 0
 6-311+G(2d,p)
 ****
 1  2  3  4  5  17  18  19  20  21  22  23  24  25 0
 3-21G
 ****
 26  28  29  30  38  39  40  41  42  43  44  45 0
 3-21G
 ****


