%nproc=1
%NoSave
%Mem=1900MB
#P OB98/GEN NMR

erre ene a

0 1
  C      220.927     543.775      95.491
  O      221.521     543.850      94.221
  P      221.150     545.038      93.214
  C      219.005     545.834      92.022
  O      219.633     544.787      92.762
  C      218.434     545.286      90.713
  O      217.443     544.256      90.968
  C      217.687     546.330      89.879
  O      218.444     547.386      89.333
  C      216.933     545.434      88.912
  O      217.778     545.027      87.826
  C      216.580     544.222      89.808
  N      215.159     544.228      90.185
  C      214.264     544.528      89.176
  O      214.583     544.755      88.018
  N      212.935     544.562      89.545
  C      212.454     544.380      90.809
  O      211.256     544.477      91.081
  C      213.461     544.106      91.848
  C      214.753     544.044      91.509
  O      222.098     545.246      92.087
  O      221.004     546.315      94.183
  H      217.206     544.694      87.115
  H      220.317     546.224      94.875
  H      212.261     544.775      88.822
  H      213.108     543.949      92.868
  H      215.515     543.829      92.249
  H      216.779     543.287      89.281
  H      216.077     545.957      88.459
  H      216.942     546.809      90.528
  H      219.263     544.824      90.136
  H      219.769     546.607      91.789
  H      218.235     546.303      92.635
  P      217.863     548.870      89.132
  C      215.944     549.980      87.786
  O      216.628     548.781      88.120
  O      218.868     549.961      88.894
  O      217.138     549.123      90.534
  H      217.171     550.077      90.736
  H      215.091     549.735      87.124
  H      216.605     550.660      87.252
  H      215.549     550.457      88.695
  H      221.301     542.917      96.010
  H      219.866     543.692      95.384
  H      221.161     544.659      96.047

 3  4  5  6  7  8  9  10  11  12  13  23  28  29  30  31  32 0
 6-311+G(2d,p)
 ****
 33  34 0
 6-311+G(2d,p)
 ****
 1  2  14  15  16  17  18  19  20  21  22  24  25  26  27 0
 3-21G
 ****
 35  36  37  38  39  40  41  42  43  44  45 0
 3-21G
 ****


