%nproc=1
%NoSave
%Mem=1900MB
#P OB98/GEN NMR

erre ene a

0 1
  C     -322.926      -6.925    -504.090
  O     -322.675      -7.133    -505.465
  H     -323.999      -6.758    -503.952
  H     -322.384      -6.048    -503.726
  H     -322.637      -7.808    -503.512
  P     -321.155      -7.289    -505.946
  C     -321.300      -9.441    -507.369
  O     -320.893      -8.858    -506.141
  C     -322.364     -10.523    -507.132
  O     -323.560      -9.895    -506.593
  C     -322.778     -11.274    -508.411
  O     -323.160     -12.598    -508.021
  C     -323.992     -10.473    -508.848
  O     -324.743     -11.160    -509.813
  C     -324.651     -10.207    -507.490
  N     -325.636      -9.142    -507.545
  C     -326.976      -9.539    -507.568
  O     -327.268     -10.733    -507.554
  N     -327.949      -8.574    -507.640
  C     -327.612      -7.323    -507.747
  N     -328.623      -6.418    -507.827
  C     -326.204      -6.867    -507.785
  C     -325.277      -7.819    -507.679
  O     -320.135      -6.584    -505.117
  O     -321.167      -6.734    -507.449
  H     -324.964     -12.071    -509.512
  H     -320.759      -5.849    -507.479
  H     -325.976      -5.821    -507.895
  H     -324.219      -7.587    -507.697
  H     -325.140     -11.116    -507.112
  H     -323.681      -9.529    -509.307
  H     -321.986     -11.315    -509.161
  H     -321.996     -11.218    -506.368
  H     -329.569      -6.777    -507.807
  H     -320.413      -9.887    -507.832
  H     -328.477      -5.425    -507.933
  H     -321.699      -8.674    -508.039
  P     -322.348     -13.908    -508.466
  C     -321.638     -14.960    -506.221
  O     -321.223     -14.229    -507.374
  O     -321.836     -13.856    -509.868
  O     -323.387     -15.116    -508.298
  H     -323.177     -15.805    -508.959
  H     -320.800     -15.109    -505.573
  H     -322.029     -15.909    -506.522
  H     -322.396     -14.410    -505.704

 6  7  8  9  10  11  12  13  14  15  16  26  30  31  32  33  35 0
 6-311+G(2d,p)
 ****
 37  38 0
 6-311+G(2d,p)
 ****
 1  2  3  4  5  17  18  19  20  21  22  23  24  25 0
 3-21G
 ****
 27  28  29  34  36  39  40  41  42  43  44  45  46 0
 3-21G
 ****


