%nproc=1
%NoSave
%Mem=1900MB
#P OB98/GEN NMR

erre ene a

0 1
  C       63.545    -180.838    -269.521
  O       62.471    -181.194    -268.674
  H       64.190    -181.711    -269.650
  H       64.124    -180.032    -269.074
  H       63.170    -180.532    -270.503
  P       61.388    -180.044    -268.372
  C       58.816    -180.375    -268.106
  O       60.121    -180.781    -267.727
  C       57.769    -181.354    -267.560
  O       57.991    -182.663    -268.170
  C       57.834    -181.557    -266.040
  O       56.512    -181.885    -265.579
  C       58.735    -182.777    -265.930
  O       58.670    -183.337    -264.634
  C       58.182    -183.610    -267.091
  N       59.438    -188.514    -266.371
  C       58.464    -187.746    -265.838
  N       58.180    -186.452    -266.089
  C       59.025    -185.950    -267.010
  C       60.057    -186.605    -267.651
  C       60.260    -187.958    -267.295
  N       61.259    -188.734    -267.837
  N       60.708    -185.765    -268.542
  C       60.069    -184.618    -268.436
  N       59.052    -184.674    -267.520
  O       60.883    -179.625    -269.837
  O       61.895    -178.870    -267.603
  H       58.974    -182.695    -263.959
  H       61.380    -178.846    -270.149
  H       57.824    -188.243    -265.107
  H       60.306    -183.710    -268.984
  H       57.205    -184.042    -266.849
  H       59.784    -182.508    -266.110
  H       58.198    -180.681    -265.499
  H       56.767    -181.023    -267.875
  H       58.768    -180.346    -269.203
  H       58.614    -179.368    -267.714
  H       61.346    -189.690    -267.513
  H       61.890    -188.330    -268.513
  P       55.699    -180.821    -264.684
  C       53.260    -180.630    -263.747
  O       54.279    -181.459    -264.295
  O       55.289    -179.718    -265.773
  O       56.470    -180.197    -263.565
  H       55.192    -178.857    -265.338
  H       52.389    -181.219    -263.550
  H       53.017    -179.856    -264.444
  H       53.609    -180.192    -262.835

 6  7  8  9  10  11  12  13  14  15  25  28  32  33  34  35 0
 6-311+G(2d,p)
 ****
 36  37  40 0
 6-311+G(2d,p)
 ****
 1  2  3  4  5  16  17  18  19  20  21  22  23  24 0
 3-21G
 ****
 26  27  29  30  31  38  39 41  42  43  44  45  46  47  48 0
 3-21G
 ****


