%nproc=1
%NoSave
%Mem=1900MB
#P OB98/GEN NMR

erre ene a

0 1
  C       49.676     678.796    1057.047
  O       50.353     677.778    1057.774
  H       48.590     678.649    1057.171
  H       49.920     678.732    1055.990
  H       49.934     679.780    1057.449
  P       51.940     677.848    1057.901
  C       52.502     677.087    1055.493
  O       52.537     676.765    1056.881
  C       53.419     676.153    1054.713
  O       54.784     676.235    1055.233
  C       53.040     674.671    1054.816
  O       51.917     674.371    1053.989
  C       54.329     674.002    1054.400
  O       54.464     673.985    1052.962
  C       55.386     674.932    1055.040
  N       55.918     674.411    1056.308
  C       57.253     674.745    1056.606
  O       57.967     675.390    1055.834
  N       57.746     674.259    1057.782
  C       57.070     673.406    1058.636
  O       57.586     672.924    1059.625
  C       55.693     673.071    1058.253
  C       55.178     673.595    1057.132
  O       52.492     677.780    1059.282
  O       52.309     679.241    1057.187
  H       55.203     673.370    1052.770
  H       52.543     679.913    1057.876
  H       58.691     674.471    1058.014
  H       55.129     672.410    1058.903
  H       54.166     673.339    1056.842
  H       56.232     675.076    1054.358
  H       54.392     672.966    1054.745
  H       52.812     674.404    1055.861
  H       53.442     676.474    1053.640
  H       52.846     678.124    1055.360
  H       51.468     677.009    1055.132
  P       50.640     673.631    1054.607
  C       51.769     671.495    1053.765
  O       50.554     672.184    1053.931
  O       49.369     674.433    1054.612
  O       51.081     673.303    1056.123
  H       50.479     673.749    1056.737
  H       51.582     670.547    1053.306
  H       52.227     671.344    1054.720
  H       52.423     672.070    1053.143

 6  7  8  9  10  11  12  13  14  15  16  26  31  32  33  34  35 0
 6-311+G(2d,p)
 ****
 36  37 0
 6-311+G(2d,p)
 ****
 1  2  3  4  5  17  18  19  20  21  22  23  24  25 0
 3-21G
 ****
 27  28  29  30  38  39  40  41  42  43  44  45 0
 3-21G
 ****


