%nproc=1
%NoSave
%Mem=1900MB
#P OB98/GEN NMR

erre ene a

0 1
  C        3.318     -43.351     201.369
  O        3.958     -42.533     202.323
  P        5.291     -43.011     203.070
  C        4.106     -44.531     204.780
  O        4.875     -43.350     204.587
  C        3.361     -44.468     206.118
  O        2.497     -45.642     206.228
  C        4.312     -44.465     207.332
  O        4.085     -43.400     208.257
  C        4.139     -45.866     207.896
  O        4.524     -45.992     209.252
  C        2.673     -46.158     207.561
  N        2.349     -47.579     207.656
  C        1.857     -48.037     208.875
  O        1.672     -47.329     209.860
  N        1.633     -49.383     208.962
  C        1.951     -50.311     208.016
  O        1.815     -51.512     208.200
  C        2.504     -49.771     206.765
  C        2.655     -48.451     206.632
  O        6.459     -42.092     202.945
  O        5.543     -44.471     202.462
  H        3.894     -45.478     209.791
  H        4.821     -45.106     202.609
  H        1.277     -49.729     209.839
  H        2.777     -50.485     206.000
  H        3.059     -48.025     205.720
  H        1.997     -45.606     208.215
  H        4.786     -46.540     207.319
  H        5.353     -44.325     207.017
  H        2.731     -43.574     206.108
  H        4.778     -45.393     204.785
  H        3.410     -44.662     203.944
  P        5.050     -42.139     208.459
  C        6.061     -43.102     210.653
  O        5.402     -42.026     210.016
  O        4.583     -40.872     207.824
  O        6.433     -42.620     207.809
  H        6.918     -41.847     207.466
  H        5.780     -43.108     211.710
  H        7.142     -42.957     210.581
  H        5.788     -44.062     210.208
  H        2.452     -42.849     200.992
  H        3.025     -44.272     201.828
  H        3.992     -43.553     200.563

 3  4  5  6  7  8  9  10  11  12  13  23  28  29  30  31  32 0
 6-311+G(2d,p)
 ****
 33  34 0
 6-311+G(2d,p)
 ****
 1  2  14  15  16  17  18  19  20  21  22  24  25  26  27 0
 3-21G
 ****
 35  36  37  38  39  40  41  42  43  44  45 0
 3-21G
 ****


