%nproc=1
%NoSave
%Mem=1900MB
#P OB98/GEN NMR

erre ene a

0 1
  C     -162.799    -335.978      91.115
  O     -161.859    -335.378      90.252
  H     -162.738    -337.065      91.001
  H     -163.809    -335.660      90.845
  H     -162.595    -335.723      92.161
  P     -161.538    -333.814      90.416
  C     -159.887    -333.149      92.290
  O     -160.043    -333.723      90.999
  C     -158.613    -333.683      92.953
  O     -158.869    -335.048      93.401
  C     -157.395    -333.717      92.004
  O     -156.213    -333.447      92.768
  C     -157.405    -335.165      91.555
  O     -156.159    -335.567      91.044
  C     -157.821    -335.870      92.844
  N     -158.264    -337.240      92.587
  C     -157.630    -338.251      93.296
  O     -156.722    -338.052      94.109
  N     -158.009    -339.533      92.997
  C     -158.868    -339.893      91.994
  O     -159.118    -341.056      91.714
  C     -159.471    -338.783      91.236
  C     -159.154    -337.526      91.564
  O     -162.549    -333.014      91.171
  O     -161.347    -333.288      88.912
  H     -156.097    -336.543      91.052
  H     -161.475    -332.321      88.873
  H     -157.566    -340.277      93.509
  H     -160.143    -339.032      90.424
  H     -159.566    -336.686      91.018
  H     -156.995    -335.888      93.565
  H     -158.154    -335.308      90.765
  H     -157.476    -333.007      91.177
  H     -158.401    -333.088      93.849
  H     -160.766    -333.419      92.895
  H     -159.838    -332.060      92.198
  P     -155.051    -332.482      92.225
  C     -155.374    -330.059      93.021
  O     -154.742    -331.309      93.287
  O     -155.265    -331.993      90.826
  O     -153.727    -333.388      92.282
  H     -153.229    -333.286      91.449
  H     -155.105    -329.355      93.780
  H     -156.436    -330.190      93.016
  H     -155.055    -329.694      92.067

 6  7  8  9  10  11  12  13  14  15  16  26  31  32  33  34  35 0
 6-311+G(2d,p)
 ****
 36  37 0
 6-311+G(2d,p)
 ****
 1  2  3  4  5  17  18  19  20  21  22  23  24  25 0
 3-21G
 ****
 27  28  29  30  38  39  40  41  42  43  44  45 0
 3-21G
 ****


