%nproc=1
%NoSave
%Mem=1900MB
#P OB98/GEN NMR

erre ene a

0 1
  C     1002.927    -897.160     -11.505
  O     1002.821    -897.720     -12.792
  H     1003.963    -896.850     -11.346
  H     1002.663    -897.890     -10.745
  H     1002.279    -896.280     -11.421
  P     1001.408    -898.320     -13.260
  C     1000.400    -896.440     -14.716
  O     1000.403    -897.090     -13.441
  C     1001.519    -895.380     -14.767
  O     1002.794    -896.080     -14.651
  C     1001.497    -894.600     -16.090
  O     1001.497    -893.180     -15.908
  C     1002.693    -895.180     -16.863
  O     1003.280    -894.310     -17.800
  C     1003.639    -895.640     -15.726
  N     1004.552    -896.690     -16.122
  C     1005.556    -896.380     -17.039
  O     1005.719    -895.260     -17.528
  N     1006.393    -897.400     -17.387
  C     1006.325    -898.690     -16.941
  O     1007.105    -899.570     -17.296
  C     1005.250    -898.970     -15.972
  C     1004.403    -897.980     -15.634
  O     1000.882    -899.440     -12.420
  O     1001.666    -898.790     -14.770
  H     1004.014    -894.800     -18.223
  H     1001.779    -899.770     -14.786
  H     1007.122    -897.180     -18.053
  H     1005.154    -900.000     -15.609
  H     1003.599    -898.160     -14.932
  H     1004.241    -894.790     -15.368
  H     1002.347    -896.070     -17.398
  H     1000.590    -894.790     -16.662
  H     1001.416    -894.710     -13.900
  H      999.431    -895.980     -14.850
  H     1000.568    -897.180     -15.511
  P     1000.159    -892.300     -15.801
  C     1000.396    -891.440     -13.348
  O      999.717    -892.260     -14.264
  O      999.097    -892.600     -16.823
  O     1000.688    -890.790     -16.076
  H      999.953    -890.337     -16.536
  H      999.958    -891.550     -12.378
  H     1000.322    -890.419     -13.660
  H     1001.426    -891.727     -13.308

 6  7  8  9  10  11  12  13  14  15  16  26  31  32  33  34  35 0
 6-311+G(2d,p)
 ****
 36  37 0
 6-311+G(2d,p)
 ****
 1  2  3  4  5  17  18  19  20  21  22  23  24  25 0
 3-21G
 ****
 27  28  29  30  38  39  40  41  42  43  44  45 0
 3-21G
 ****


