%nproc=1
%NoSave
%Mem=1900MB
#P OB98/GEN NMR

erre ene a

0 1
  C      135.830    -653.933     216.102
  O      134.582    -653.731     216.741
  H      136.405    -654.659     216.680
  H      136.388    -652.990     216.059
  H      135.679    -654.321     215.091
  P      133.577    -652.697     216.031
  C      134.490    -650.600     217.286
  O      133.397    -651.481     217.059
  C      133.998    -649.160     217.429
  O      133.559    -648.684     216.115
  C      132.790    -648.990     218.372
  O      132.847    -647.674     218.940
  C      131.623    -649.082     217.407
  O      130.427    -648.640     218.009
  C      132.187    -648.268     216.249
  N      128.686    -646.274     213.084
  C      129.234    -645.807     214.235
  N      130.164    -646.388     215.012
  C      130.560    -647.561     214.490
  C      130.100    -648.169     213.326
  C      129.115    -647.468     212.610
  N      128.554    -647.946     211.449
  N      130.741    -649.378     213.123
  C      131.568    -649.502     214.142
  N      131.486    -648.439     214.999
  O      132.169    -653.462     216.090
  O      133.941    -652.303     214.639
  H      130.046    -649.343     218.576
  H      132.010    -653.931     215.253
  H      128.864    -644.837     214.570
  H      132.237    -650.343     214.312
  H      132.190    -647.190     216.477
  H      131.449    -650.126     217.096
  H      132.774    -649.731     219.177
  H      134.834    -648.521     217.728
  H      135.184    -650.677     216.441
  H      135.011    -650.893     218.207
  H      127.833    -647.389     211.001
  H      128.846    -648.842     211.087
  P      133.724    -647.429     220.266
  C      131.995    -648.125     222.110
  O      132.726    -647.089     221.479
  O      134.377    -645.989     219.963
  O      134.774    -648.443     220.549
  H      135.231    -645.922     220.440
  H      131.389    -647.711     222.888
  H      132.675    -648.838     222.528
  H      131.369    -648.609     221.390

 6  7  8  9  10  11  12  13  14  15  25  28  32  33  34  35 0
 6-311+G(2d,p)
 ****
 36  37  40 0
 6-311+G(2d,p)
 ****
 1  2  3  4  5  16  17  18  19  20  21  22  23  24 0
 3-21G
 ****
 26  27  29  30  31  38  39 41  42  43  44  45  46  47  48 0
 3-21G
 ****


