%nproc=1
%NoSave
%Mem=1900MB
#P OB98/GEN NMR

erre ene a

0 1
  C      122.265     376.641    -416.056
  O      122.148     376.270    -417.433
  P      122.016     374.713    -417.801
  C      124.525     374.189    -418.042
  O      123.338     373.958    -417.293
  C      125.604     373.160    -417.677
  O      125.872     373.135    -416.266
  C      125.214     371.738    -418.034
  O      125.300     371.518    -419.438
  C      126.201     370.938    -417.196
  O      127.476     370.837    -417.854
  C      126.331     371.810    -415.922
  N      125.595     371.282    -414.787
  C      125.533     372.116    -413.657
  O      126.097     373.209    -413.659
  N      124.825     371.687    -412.562
  C      124.246     370.516    -412.575
  N      123.556     370.146    -411.462
  C      124.305     369.600    -413.738
  C      124.996     370.037    -414.785
  O      121.612     374.417    -419.210
  O      120.895     374.200    -416.766
  H      127.989     370.179    -417.350
  H      120.405     373.462    -417.172
  H      123.804     368.640    -413.697
  H      125.097     369.427    -415.682
  H      127.383     371.911    -415.633
  H      125.849     369.912    -417.012
  H      124.195     371.535    -417.697
  H      126.531     373.438    -418.214
  H      123.540     370.785    -410.675
  H      124.898     375.201    -417.842
  H      123.035     369.277    -411.395
  H      124.285     374.150    -419.110
  P      123.931     371.297    -420.236
  C      123.590     368.722    -420.272
  O      123.249     369.962    -419.681
  O      124.439     370.865    -421.705
  O      123.036     372.497    -420.309
  H      123.818     371.204    -422.375
  H      123.300     367.910    -419.609
  H      124.656     368.652    -420.477
  H      123.030     368.606    -421.219
  H      122.344     377.705    -415.979
  H      123.139     376.187    -415.637
  H      121.400     376.308    -415.522

 3  4  5  6  7  8  9  10  11  12  13  23  27  28  29  30  32 0
 6-311+G(2d,p)
 ****
 34  35 0
 6-311+G(2d,p)
 ****
 1  2  14  15  16  17  18  19  20  21  22  24  25  26 0
 3-21G
 ****
 31  33  36  37  38  39  40  41  42  43  44  45  46 0
 3-21G
 ****


