%nproc=1
%NoSave
%Mem=1900MB
#P OB98/GEN NMR

erre ene a

0 1
  C      193.843    -182.015    -151.453
  O      193.580    -180.682    -151.838
  H      194.653    -182.043    -150.718
  H      192.942    -182.435    -150.997
  H      194.112    -182.617    -152.325
  P      194.779    -179.880    -152.542
  C      193.254    -178.478    -154.112
  O      194.151    -178.478    -153.008
  C      192.588    -177.112    -154.229
  O      191.434    -177.045    -153.363
  C      193.478    -175.943    -153.823
  O      194.365    -175.560    -154.859
  C      192.432    -174.872    -153.568
  O      191.962    -174.345    -154.822
  C      191.323    -175.676    -152.880
  N      189.322    -173.829    -148.548
  C      189.012    -173.622    -149.845
  N      189.596    -174.147    -150.940
  C      190.600    -174.968    -150.595
  C      191.037    -175.272    -149.316
  C      190.344    -174.665    -148.254
  N      190.667    -174.864    -146.930
  N      192.121    -176.127    -149.361
  C      192.309    -176.360    -150.643
  N      191.424    -175.675    -151.430
  O      194.993    -180.660    -153.923
  O      196.037    -179.768    -151.748
  H      191.286    -173.673    -154.606
  H      195.883    -180.474    -154.278
  H      188.184    -172.941    -150.026
  H      193.071    -177.013    -151.049
  H      190.321    -175.317    -153.137
  H      192.814    -174.030    -152.990
  H      194.016    -176.150    -152.890
  H      192.236    -176.994    -155.262
  H      192.489    -179.241    -153.951
  H      190.233    -174.244    -146.263
  H      191.516    -175.361    -146.713
  H      193.809    -178.713    -155.025
  P      195.916    -175.389    -154.478
  C      196.599    -175.446    -156.987
  O      196.611    -174.723    -155.760
  O      196.461    -176.891    -154.493
  O      196.166    -174.704    -153.173
  H      197.233    -176.986    -153.903
  H      197.097    -174.875    -157.742
  H      195.587    -175.626    -157.285
  H      197.103    -176.380    -156.855

 6  7  8  9  10  11  12  13  14  15  25  28  32  33  34  35 0
 6-311+G(2d,p)
 ****
 36  39  40 0
 6-311+G(2d,p)
 ****
 1  2  3  4  5  16  17  18  19  20  21  22  23  24 0
 3-21G
 ****
 26  27  29  30  31  37  38  41  42  43  44  45  46  47 0
 3-21G
 ****
 48 0
 3-21G
 ****


