%nproc=1
%NoSave
%Mem=1900MB
#P OB98/GEN NMR

erre ene a

0 1
  C       22.573    -173.599     163.618
  O       21.413    -172.816     163.829
  H       23.349    -172.965     163.181
  H       22.354    -174.417     162.926
  H       22.936    -173.997     164.568
  P       20.158    -173.564     164.493
  C       18.674    -173.725     162.377
  O       18.902    -173.076     163.621
  C       17.959    -172.786     161.410
  O       17.597    -173.482     160.203
  C       16.664    -172.193     161.949
  O       16.929    -171.089     162.800
  C       15.989    -171.760     160.657
  O       16.550    -170.508     160.211
  C       16.380    -172.885     159.680
  N       12.214    -174.363     157.069
  C       12.875    -173.186     157.115
  N       13.947    -172.852     157.864
  C       14.337    -173.885     158.627
  C       13.761    -175.146     158.687
  C       12.654    -175.376     157.851
  N       11.990    -176.582     157.801
  N       14.432    -175.946     159.588
  C       15.426    -175.201     160.023
  N       15.391    -173.932     159.499
  O       20.031    -173.429     165.970
  O       20.380    -175.060     163.963
  H       16.394    -169.850     160.914
  H       20.704    -175.053     163.046
  H       12.492    -172.407     156.461
  H       16.203    -175.533     160.702
  H       16.606    -172.496     158.683
  H       14.916    -171.600     160.781
  H       16.047    -172.955     162.436
  H       18.665    -171.994     161.128
  H       18.077    -174.633     162.525
  H       11.111    -176.607     157.310
  H       12.242    -177.291     158.474
  H       19.649    -174.014     161.974
  P       15.938    -170.733     164.008
  C       14.339    -169.586     162.354
  O       15.100    -169.444     163.549
  O       16.591    -170.604     165.342
  O       14.846    -171.900     163.992
  H       14.599    -172.148     164.903
  H       13.825    -168.670     162.147
  H       13.626    -170.375     162.477
  H       14.993    -169.820     161.540

 6  7  8  9  10  11  12  13  14  15  25  28  32  33  34  35 0
 6-311+G(2d,p)
 ****
 36  39  40 0
 6-311+G(2d,p)
 ****
 1  2  3  4  5  16  17  18  19  20  21  22  23  24 0
 3-21G
 ****
 26  27  29  30  31  37  38  41  42  43  44  45  46  47 0
 3-21G
 ****
 48 0
 3-21G
 ****


