%nproc=1
%NoSave
%Mem=1900MB
#P OB98/GEN NMR

erre ene a

0 1
  C     -354.522     -92.508    -240.413
  O     -353.142     -92.765    -240.191
  P     -352.254     -93.522    -241.295
  C     -351.348     -95.258    -239.628
  O     -352.157     -95.036    -240.777
  C     -351.539     -96.683    -239.116
  O     -352.941     -96.874    -238.809
  C     -351.194     -97.800    -240.102
  O     -349.817     -98.147    -240.139
  C     -351.989     -98.955    -239.514
  O     -351.285     -99.502    -238.384
  C     -353.273     -98.262    -239.051
  N     -357.890    -100.207    -240.093
  C     -357.100    -100.283    -238.995
  N     -355.877     -99.750    -238.804
  C     -355.494     -99.048    -239.878
  C     -356.187     -98.872    -241.065
  C     -357.446     -99.492    -241.151
  N     -358.256     -99.392    -242.265
  N     -355.461     -98.095    -241.948
  C     -354.358     -97.797    -241.295
  N     -354.334     -98.340    -240.040
  O     -350.959     -92.858    -241.607
  O     -353.217     -93.637    -242.566
  H     -351.812    -100.259    -238.059
  H     -352.694     -93.841    -243.364
  H     -357.513    -100.850    -238.161
  H     -353.550     -97.198    -241.692
  H     -353.660     -98.676    -238.110
  H     -352.139     -99.776    -240.223
  H     -351.572     -97.575    -241.107
  H     -350.971     -96.796    -238.185
  H     -351.659     -94.551    -238.848
  H     -359.193     -99.757    -242.188
  H     -357.998     -98.731    -242.983
  H     -350.300     -95.063    -239.871
  P     -349.322     -99.054    -241.372
  C     -348.389    -100.861    -239.725
  O     -349.243    -100.549    -240.803
  O     -348.094     -98.559    -242.049
  O     -350.608     -99.088    -242.323
  H     -351.375     -99.565    -241.965
  H     -348.598    -101.878    -239.386
  H     -348.549    -100.177    -238.887
  H     -347.345    -100.806    -240.044
  H     -354.931     -91.999    -239.565
  H     -355.039     -93.434    -240.556
  H     -354.635     -91.898    -241.285

 3  4  5  6  7  8  9  10  11  12  22  25  29  30  31  32 0
 6-311+G(2d,p)
 ****
 33  36  37 0
 6-311+G(2d,p)
 ****
 1  2  13  14  15  16  17  18  19  20  21  23  24  26 0
 3-21G
 ****
 27  28  34  35  38  39  40  41  42  43  44  45  46  47  48 0
 3-21G
 ****


