%nproc=1
%NoSave
%Mem=1900MB
#P OB98/GEN NMR

erre ene a

0 1
  C      -71.000     -11.397     -23.572
  O      -70.757     -10.025     -23.805
  H      -70.250     -11.770     -22.871
  H      -70.924     -11.967     -24.502
  H      -71.990     -11.537     -23.129
  P      -71.658      -9.267     -24.896
  C      -71.780      -9.379     -27.481
  O      -71.119      -9.820     -26.306
  C      -71.091      -9.946     -28.720
  O      -71.067     -11.387     -28.686
  C      -71.767      -9.601     -30.043
  O      -71.564      -8.257     -30.447
  C      -71.073     -10.595     -30.960
  O      -69.742     -10.133     -31.252
  C      -71.036     -11.856     -30.063
  N      -72.149     -12.769     -30.318
  C      -71.894     -13.846     -31.175
  O      -70.781     -13.995     -31.678
  N      -72.918     -14.711     -31.475
  C      -74.098     -14.508     -30.979
  N      -75.089     -15.368     -31.346
  C      -74.407     -13.397     -30.058
  C      -73.401     -12.572     -29.777
  O      -71.726      -7.778     -24.777
  O      -73.087      -9.979     -24.796
  H      -69.328      -9.900     -30.401
  H      -73.686      -9.536     -25.446
  H      -75.410     -13.269     -29.679
  H      -73.554     -11.722     -29.121
  H      -70.095     -12.401     -30.197
  H      -71.586     -10.732     -31.916
  H      -72.834      -9.842     -30.011
  H      -70.047      -9.607     -28.701
  H      -74.850     -16.090     -32.011
  H      -71.765      -8.285     -27.490
  H      -76.067     -15.122     -31.234
  H      -72.819      -9.720     -27.479
  P      -72.470      -7.688     -31.646
  C      -72.276      -7.658     -34.244
  O      -71.751      -8.124     -33.012
  O      -72.215      -6.113     -31.569
  O      -73.923      -8.039     -31.583
  H      -72.902      -5.671     -31.033
  H      -71.684      -8.038     -35.050
  H      -72.255      -6.588     -34.259
  H      -73.285      -7.996     -34.352

 6  7  8  9  10  11  12  13  14  15  16  26  30  31  32  33  35 0
 6-311+G(2d,p)
 ****
 37  38 0
 6-311+G(2d,p)
 ****
 1  2  3  4  5  17  18  19  20  21  22  23  24  25 0
 3-21G
 ****
 27  28  29  34  36  39  40  41  42  43  44  45  46 0
 3-21G
 ****


