%nproc=1
%NoSave
%Mem=1900MB
#P OB98/GEN NMR

erre ene a

0 1
  C      -25.266     -18.198      30.055
  O      -25.220     -18.425      31.449
  H      -24.257     -18.299      29.648
  H      -25.628     -17.187      29.852
  H      -25.918     -18.930      29.569
  P      -26.619     -18.438      32.231
  C      -26.782     -21.000      32.668
  O      -26.573     -19.707      33.215
  C      -26.401     -22.065      33.697
  O      -24.955     -22.219      33.689
  C      -26.816     -21.703      35.127
  O      -27.218     -22.894      35.811
  C      -25.533     -21.168      35.738
  O      -25.494     -21.252      37.155
  C      -24.490     -22.051      35.045
  N      -23.153     -21.462      35.064
  C      -22.228     -22.004      35.950
  O      -22.430     -22.987      36.661
  N      -21.016     -21.364      36.003
  C      -20.659     -20.254      35.296
  O      -19.565     -19.713      35.404
  C      -21.682     -19.723      34.383
  C      -22.863     -20.341      34.312
  O      -27.667     -18.887      31.108
  O      -27.001     -17.158      32.894
  H      -28.030     -18.106      30.649
  H      -26.333     -20.886      37.503
  H      -20.333     -21.745      36.639
  H      -21.437     -18.838      33.811
  H      -23.644     -19.966      33.659
  H      -24.464     -23.045      35.507
  H      -25.396     -20.117      35.458
  H      -27.621     -20.968      35.163
  H      -26.830     -23.026      33.390
  H      -26.158     -21.118      31.777
  H      -27.834     -21.106      32.385
  P      -28.738     -22.973      36.324
  C      -29.572     -24.513      34.383
  O      -29.317     -24.364      35.768
  O      -29.436     -21.860      35.416
  O      -28.867     -22.767      37.796
  H      -29.084     -21.821      34.511
  H      -29.951     -25.495      34.194
  H      -28.664     -24.370      33.836
  H      -30.294     -23.786      34.073

 6  7  8  9  10  11  12  13  14  15  16  27  31  32  33  34  35 0
 6-311+G(2d,p)
 ****
 36  37 0
 6-311+G(2d,p)
 ****
 1  2  3  4  5  17  18  19  20  21  22  23  24  25 0
 3-21G
 ****
 26  28  29  30  38  39  40  41  42  43  44  45 0
 3-21G
 ****


