%nproc=1
%NoSave
%Mem=1900MB
#P OB98/GEN NMR

erre ene a

0 1
  C      476.544     173.982    -205.321
  O      475.677     173.587    -204.274
  H      477.473     173.410    -205.239
  H      476.776     175.049    -205.242
  H      476.089     173.768    -206.295
  P      474.259     174.320    -204.127
  C      471.844     173.564    -203.604
  O      473.231     173.233    -203.536
  C      470.991     172.296    -203.453
  O      471.202     171.480    -204.629
  C      471.386     171.465    -202.216
  O      470.276     171.161    -201.369
  C      472.162     170.295    -202.810
  O      472.144     169.116    -202.031
  C      471.543     170.146    -204.209
  N      472.429     169.507    -205.182
  C      472.551     168.116    -205.120
  O      471.950     167.385    -204.331
  N      473.402     167.557    -206.037
  C      474.131     168.229    -206.974
  O      474.879     167.671    -207.775
  C      473.980     169.693    -206.977
  C      473.151     170.258    -206.090
  O      473.778     175.051    -205.337
  O      474.471     175.316    -202.886
  H      472.455     169.352    -201.128
  H      474.598     176.228    -203.217
  H      473.493     166.553    -206.014
  H      474.554     170.258    -207.701
  H      473.012     171.334    -206.065
  H      470.625     169.560    -204.159
  H      473.208     170.599    -202.914
  H      472.052     172.036    -201.557
  H      469.934     172.581    -203.427
  H      471.655     174.040    -204.572
  H      471.597     174.273    -202.803
  P      470.210     171.477    -199.802
  C      468.382     171.164    -197.942
  O      468.896     170.770    -199.207
  O      470.446     172.896    -199.421
  O      471.416     170.588    -199.198
  H      471.767     171.088    -198.428
  H      467.511     170.586    -197.715
  H      468.124     172.202    -197.969
  H      469.124     171.001    -197.189

 6  7  8  9  10  11  12  13  14  15  16  26  31  32  33  34  35 0
 6-311+G(2d,p)
 ****
 36  37 0
 6-311+G(2d,p)
 ****
 1  2  3  4  5  17  18  19  20  21  22  23  24  25 0
 3-21G
 ****
 27  28  29  30  38  39  40  41  42  43  44  45 0
 3-21G
 ****


