%nproc=1
%NoSave
%Mem=1900MB
#P OB98/GEN NMR

erre ene a

0 1
  C      843.838     463.823     -98.021
  O      843.612     462.696     -97.164
  P      842.588     461.504     -97.530
  C      840.441     462.414     -96.420
  O      841.094     462.094     -97.636
  C      839.240     463.345     -96.640
  O      838.672     463.739     -95.357
  C      839.560     464.626     -97.420
  O      838.442     464.876     -98.285
  C      839.649     465.657     -96.303
  O      839.527     467.003     -96.749
  C      838.501     465.176     -95.409
  N      838.468     465.757     -94.055
  C      837.544     466.770     -93.811
  O      836.827     467.215     -94.703
  N      837.470     467.287     -92.528
  C      838.251     466.838     -91.603
  N      838.114     467.382     -90.353
  C      839.249     465.776     -91.829
  C      839.300     465.280     -93.060
  O      842.695     460.326     -96.611
  O      842.944     461.080     -99.033
  H      842.829     460.115     -99.130
  H      840.219     467.175     -97.405
  H      839.878     465.415     -91.024
  H      839.983     464.477     -93.306
  H      837.539     465.376     -95.908
  H      840.625     465.564     -95.808
  H      840.461     464.554     -98.032
  H      838.457     462.762     -97.152
  H      837.415     468.103     -90.237
  H      841.161     462.914     -95.756
  H      838.666     467.097     -89.556
  H      840.127     461.488     -95.922
  P      838.226     463.987     -99.601
  C      839.208     465.675    -101.335
  O      839.338     464.433    -100.677
  O      836.895     464.640    -100.228
  O      838.042     462.521     -99.375
  H      836.443     463.963    -100.762
  H      840.181     466.179    -101.360
  H      838.474     466.335    -100.848
  H      838.890     465.491    -102.371
  H      844.555     464.477     -97.569
  H      842.918     464.349     -98.168
  H      844.210     463.484     -98.965

 3  4  5  6  7  8  9  10  11  12  13  24  27  28  29  30  32 0
 6-311+G(2d,p)
 ****
 34  35 0
 6-311+G(2d,p)
 ****
 1  2  14  15  16  17  18  19  20  21  22  23  25  26 0
 3-21G
 ****
 31  33  36  37  38  39  40  41  42  43  44  45  46 0
 3-21G
 ****


