%nproc=1
%NoSave
%Mem=1900MB
#P OB98/GEN NMR

erre ene a

0 1
  C     -889.490     475.036     370.970
  O     -890.640     474.247     370.755
  H     -888.650     474.377     371.204
  H     -889.650     475.711     371.821
  H     -889.230     475.617     370.077
  P     -891.940     474.923     370.115
  C     -893.430     475.888     371.988
  O     -892.350     476.141     371.091
  C     -894.150     477.200     372.324
  O     -894.700     477.765     371.074
  C     -895.310     477.042     373.331
  O     -895.380     478.219     374.159
  C     -896.500     476.971     372.401
  O     -897.710     477.262     373.052
  C     -896.090     477.986     371.330
  N     -896.910     477.846     370.123
  C     -898.260     478.190     370.231
  O     -898.780     478.580     371.285
  N     -899.000     478.000     369.101
  C     -898.580     477.406     367.936
  O     -899.340     477.188     367.015
  C     -897.170     477.023     367.913
  C     -896.410     477.261     368.985
  O     -893.070     473.997     369.773
  O     -891.390     475.705     368.818
  H     -897.720     478.205     373.340
  H     -892.110     475.883     368.189
  H     -900.000     478.247     369.164
  H     -896.790     476.556     367.013
  H     -895.360     476.990     369.000
  H     -896.200     479.028     371.716
  H     -896.600     475.963     371.971
  H     -895.200     476.156     373.960
  H     -893.410     477.922     372.690
  H     -893.010     475.439     372.908
  H     -894.130     475.183     371.526
  P     -894.820     478.239     375.652
  C     -896.810     477.295     376.972
  O     -895.460     477.047     376.514
  O     -894.880     479.580     376.316
  O     -893.270     477.792     375.498
  H     -892.710     478.377     376.028
  H     -897.156     476.453     377.535
  H     -897.450     477.447     376.129
  H     -896.822     478.168     377.591

 6  7  8  9  10  11  12  13  14  15  16  26  31  32  33  34  35 0
 6-311+G(2d,p)
 ****
 36  37 0
 6-311+G(2d,p)
 ****
 1  2  3  4  5  17  18  19  20  21  22  23  24  25 0
 3-21G
 ****
 27  28  29  30  38  39  40  41  42  43  44  45 0
 3-21G
 ****


