%nproc=1
%NoSave
%Mem=1900MB
#P OB98/GEN NMR

erre ene a

0 1
  C      -40.281     -86.496     115.160
  O      -40.069     -87.403     114.100
  H      -40.615     -85.541     114.745
  H      -39.345     -86.329     115.699
  H      -41.045     -86.863     115.849
  P      -39.847     -88.954     114.436
  C      -40.692     -89.562     112.074
  O      -39.642     -89.687     113.023
  C      -40.467     -88.327     111.200
  O      -39.210     -88.503     110.476
  C      -41.579     -88.104     110.156
  O      -41.750     -86.695     109.967
  C      -40.961     -88.723     108.919
  O      -41.571     -88.264     107.739
  C      -39.500     -88.308     109.082
  N      -38.623     -89.088     108.214
  C      -37.757     -88.375     107.393
  O      -37.706     -87.148     107.358
  N      -36.988     -89.122     106.543
  C      -37.078     -90.470     106.360
  O      -36.421     -91.077     105.528
  C      -38.051     -91.166     107.220
  C      -38.762     -90.456     108.097
  O      -40.868     -89.584     115.322
  O      -38.375     -89.015     115.062
  H      -41.465     -87.298     107.663
  H      -38.266     -89.827     115.593
  H      -36.346     -88.620     105.948
  H      -38.160     -92.234     107.088
  H      -39.501     -90.932     108.732
  H      -39.369     -87.241     108.860
  H      -41.066     -89.812     108.949
  H      -42.531     -88.562     110.436
  H      -40.345     -87.449     111.843
  H      -41.637     -89.466     112.620
  H      -40.729     -90.462     111.452
  P      -42.888     -85.869     110.742
  C      -41.538     -83.735     111.210
  O      -42.670     -84.288     110.545
  O      -43.080     -86.281     112.166
  O      -44.224     -86.162     109.907
  H      -44.948     -86.373     110.527
  H      -41.487     -82.684     111.014
  H      -40.648     -84.208     110.852
  H      -41.629     -83.897     112.264

 6  7  8  9  10  11  12  13  14  15  16  26  31  32  33  34  35 0
 6-311+G(2d,p)
 ****
 36  37 0
 6-311+G(2d,p)
 ****
 1  2  3  4  5  17  18  19  20  21  22  23  24  25 0
 3-21G
 ****
 27  28  29  30  38  39  40  41  42  43  44  45 0
 3-21G
 ****


