%nproc=1
%NoSave
%Mem=1900MB
#P OB98/GEN NMR

erre ene a

0 1
  C      156.833     240.664    -123.913
  O      156.442     241.005    -125.233
  P      155.412     240.006    -125.969
  C      157.019     239.445    -127.922
  O      155.777     239.983    -127.548
  C      157.566     240.106    -129.202
  O      156.926     239.547    -130.379
  C      157.347     241.622    -129.242
  O      158.455     242.197    -129.934
  C      156.098     241.769    -130.097
  O      155.969     243.082    -130.634
  C      156.347     240.653    -131.113
  N      152.670     242.111    -134.359
  C      153.769     242.764    -133.868
  N      154.683     242.301    -132.993
  C      154.401     241.027    -132.646
  C      153.343     240.252    -133.057
  C      152.431     240.840    -133.943
  N      151.307     240.200    -134.412
  N      153.368     239.014    -132.430
  C      154.466     239.045    -131.681
  N      155.124     240.227    -131.793
  O      154.022     240.798    -125.906
  O      155.309     238.665    -125.325
  H      155.853     243.708    -129.891
  H      153.427     240.370    -125.272
  H      153.916     243.774    -134.228
  H      154.783     238.242    -131.014
  H      157.057     240.952    -131.908
  H      155.215     241.544    -129.489
  H      157.218     242.096    -128.263
  H      158.652     239.882    -129.285
  H      156.917     238.352    -128.114
  H      150.691     240.727    -135.025
  H      151.093     239.279    -134.074
  H      157.723     239.533    -127.103
  P      159.593     242.910    -129.040
  C      159.731     245.379    -129.877
  O      160.240     244.045    -129.951
  O      160.720     241.787    -128.931
  O      159.089     243.360    -127.715
  H      161.251     241.921    -128.118
  H      160.573     246.073    -129.907
  H      159.162     245.543    -128.957
  H      159.082     245.548    -130.738
  H      157.513     241.402    -123.541
  H      157.313     239.708    -123.919
  H      155.969     240.625    -123.284

 3  4  5  6  7  8  9  10  11  12  22  25  29  30  31  32 0
 6-311+G(2d,p)
 ****
 33  36  37 0
 6-311+G(2d,p)
 ****
 1  2  13  14  15  16  17  18  19  20  21  23  24  26 0
 3-21G
 ****
 27  28  34  35  38  39  40  41  42  43  44  45  46  47  48 0
 3-21G
 ****


