%nproc=1
%NoSave
%Mem=1900MB
#P OB98/GEN NMR

erre ene a

0 1
  C     -219.441    -936.412     322.684
  O     -218.044    -936.123     322.844
  P     -216.969    -937.208     323.334
  C     -215.534    -936.959     321.188
  O     -216.263    -937.835     322.032
  C     -215.053    -937.681     319.925
  O     -216.189    -938.185     319.176
  C     -214.311    -936.809     318.921
  O     -212.998    -936.490     319.355
  C     -214.363    -937.681     317.662
  O     -213.316    -938.655     317.662
  C     -215.727    -938.389     317.818
  N     -216.719    -937.924     316.864
  C     -216.634    -938.465     315.576
  O     -215.710    -939.218     315.265
  N     -217.598    -938.107     314.650
  C     -218.502    -937.234     314.965
  N     -219.422    -936.932     314.017
  C     -218.532    -936.542     316.267
  C     -217.631    -936.935     317.158
  O     -217.514    -938.234     324.262
  O     -215.794    -936.358     324.025
  H     -215.339    -936.915     324.684
  H     -212.472    -938.166     317.569
  H     -219.270    -935.778     316.459
  H     -217.591    -936.489     318.150
  H     -215.608    -939.472     317.719
  H     -214.269    -937.090     316.752
  H     -214.885    -935.882     318.756
  H     -214.428    -938.531     320.231
  H     -219.380    -937.424     313.133
  H     -214.655    -936.598     321.743
  H     -220.175    -936.274     314.158
  H     -216.152    -936.091     320.937
  P     -212.762    -935.017     319.945
  C     -212.445    -935.709     322.429
  O     -213.244    -935.030     321.479
  O     -213.871    -934.132     319.208
  O     -211.393    -934.471     319.721
  H     -213.494    -933.253     318.986
  H     -212.599    -935.236     323.414
  H     -211.385    -935.659     322.185
  H     -212.756    -936.755     322.491
  H     -219.951    -935.533     322.349
  H     -219.850    -936.726     323.622
  H     -219.563    -937.192     321.962

 3  4  5  6  7  8  9  10  11  12  13  24  27  28  29  30  32 0
 6-311+G(2d,p)
 ****
 34  35 0
 6-311+G(2d,p)
 ****
 1  2  14  15  16  17  18  19  20  21  22  23  25  26 0
 3-21G
 ****
 31  33  36  37  38  39  40  41  42  43  44  45  46 0
 3-21G
 ****


