%nproc=1
%NoSave
%Mem=1900MB
#P OB98/GEN NMR

erre ene a

0 1
  C     -119.562     -42.804    -153.457
  O     -120.543     -41.827    -153.118
  P     -121.861     -42.120    -152.269
  C     -121.643     -40.196    -150.501
  O     -122.344     -40.746    -151.606
  C     -121.616     -38.659    -150.503
  O     -120.901     -38.188    -151.674
  C     -123.038     -38.099    -150.610
  O     -123.838     -37.966    -149.451
  C     -122.885     -36.811    -151.408
  O     -122.747     -35.659    -150.570
  C     -121.599     -37.044    -152.210
  N     -123.825     -35.256    -156.455
  C     -123.904     -34.781    -155.163
  N     -124.715     -33.719    -154.959
  N     -123.257     -35.305    -154.155
  C     -122.552     -36.411    -154.481
  C     -122.412     -36.993    -155.723
  C     -123.085     -36.367    -156.843
  O     -123.039     -36.741    -158.008
  N     -121.632     -38.119    -155.668
  C     -121.322     -38.237    -154.392
  N     -121.850     -37.216    -153.629
  O     -121.806     -43.317    -151.380
  O     -122.975     -42.406    -153.403
  H     -123.511     -35.633    -149.969
  H     -123.596     -43.062    -153.024
  H     -124.326     -34.799    -157.197
  H     -120.715     -39.029    -153.968
  H     -120.916     -36.192    -152.116
  H     -123.772     -36.637    -152.032
  H     -125.330     -33.347    -155.664
  H     -123.600     -38.778    -151.261
  H     -124.945     -33.504    -153.985
  H     -121.065     -38.276    -149.641
  H     -120.624     -40.597    -150.541
  H     -122.078     -40.555    -149.567
  P     -125.276     -38.633    -149.212
  C     -124.686     -39.129    -146.767
  O     -125.615     -38.528    -147.653
  O     -125.011     -40.202    -149.405
  O     -126.354     -38.159    -150.129
  H     -125.854     -40.674    -149.537
  H     -125.162     -39.267    -145.791
  H     -123.816     -38.480    -146.651
  H     -124.366     -40.107    -147.145
  H     -118.783     -42.344    -154.029
  H     -120.017     -43.581    -154.035
  H     -119.149     -43.220    -152.562

 3  4  5  6  7  8  9  10  11  12  23  26  30  31 0
 6-311+G(2d,p)
 ****
 33  35  36  37  38 0
 6-311+G(2d,p)
 ****
 1  2  13  14  15  16  17  18  19  20  21  22  24  25 0
 3-21G
 ****
 27  28  29  32  34  39  40  41  42  43  44  45  46  47  48  49 0
 3-21G
 ****


