%nproc=1
%NoSave
%Mem=1900MB
#P OB98/GEN NMR

erre ene a

0 1
  C      175.599      64.429     -21.197
  O      174.824      65.535     -21.632
  P      175.201      66.202     -23.042
  C      173.300      65.544     -24.669
  O      174.599      65.238     -24.177
  C      173.314      65.694     -26.185
  O      174.145      66.835     -26.536
  C      173.867      64.473     -26.936
  O      173.038      64.203     -28.075
  C      175.214      64.952     -27.450
  O      175.628      64.237     -28.610
  C      174.910      66.431     -27.689
  N      178.697      67.648     -30.798
  C      177.542      66.937     -31.052
  N      177.408      66.432     -32.298
  N      176.604      66.735     -30.166
  C      176.857      67.323     -28.971
  C      177.960      68.060     -28.602
  C      179.017      68.223     -29.576
  O      180.105      68.765     -29.385
  N      177.849      68.507     -27.311
  C      176.687      68.042     -26.898
  N      176.069      67.276     -27.854
  O      176.780      65.962     -23.138
  O      174.865      67.646     -23.175
  H      176.442      64.664     -28.934
  H      177.237      66.816     -23.267
  H      179.395      67.758     -31.512
  H      176.269      68.205     -25.912
  H      174.277      66.553     -28.579
  H      175.967      64.814     -26.668
  H      178.074      66.580     -33.039
  H      173.956      63.571     -26.322
  H      176.555      65.927     -32.511
  H      172.296      65.926     -26.522
  H      172.957      66.481     -24.217
  H      172.614      64.741     -24.377
  P      172.662      62.661     -28.322
  C      170.413      62.839     -27.020
  O      171.695      62.250     -27.114
  O      174.026      61.891     -27.999
  O      172.154      62.375     -29.696
  H      174.053      61.036     -28.465
  H      170.158      63.418     -27.914
  H      170.389      63.502     -26.152
  H      169.669      62.051     -26.888
  H      175.237      64.090     -20.249
  H      176.623      64.726     -21.102
  H      175.522      63.637     -21.912

 3  4  5  6  7  8  9  10  11  12  23  26  30  31  33  0
 6-311+G(2d,p)
 ****
 35  36  37  38 0
 6-311+G(2d,p)
 ****
 1  2  13  14  15  16  17  18  19  20  21  22  24  25  27  28  29 0
 3-21G
 ****
 32  34  39  40  41  42  43  44  45  46  47  48  49 0
 3-21G
 ****


