%nproc=1
%NoSave
%Mem=1900MB
#P OB98/GEN NMR

erre ene a

0 1
  C     -314.444     223.055    -121.937
  O     -315.160     222.793    -123.127
  H     -314.038     222.125    -121.532
  H     -313.618     223.733    -122.164
  H     -315.099     223.527    -121.200
  P     -316.408     221.791    -123.000
  C     -315.339     219.596    -123.856
  O     -315.800     220.327    -122.730
  C     -315.321     218.102    -123.539
  O     -316.677     217.688    -123.227
  C     -314.808     217.223    -124.692
  O     -313.801     216.317    -124.224
  C     -316.026     216.414    -125.114
  O     -315.694     215.099    -125.543
  C     -316.878     216.413    -123.850
  N     -320.203     213.106    -125.850
  C     -318.959     212.929    -125.343
  N     -318.165     213.833    -124.736
  C     -318.787     215.024    -124.645
  C     -320.056     215.349    -125.091
  C     -320.773     214.328    -125.739
  N     -322.015     214.522    -126.303
  N     -320.346     216.673    -124.829
  C     -319.248     217.153    -124.270
  N     -318.275     216.196    -124.153
  O     -316.961     221.702    -124.502
  O     -317.470     222.241    -122.052
  H     -315.141     214.697    -124.844
  H     -317.879     222.034    -124.518
  H     -318.548     211.930    -125.446
  H     -319.095     218.183    -123.975
  H     -316.554     215.638    -123.141
  H     -316.529     216.936    -125.936
  H     -314.410     217.808    -125.525
  H     -314.720     217.942    -122.637
  H     -314.324     219.919    -124.113
  H     -322.405     213.771    -126.849
  H     -322.393     215.456    -126.321
  H     -315.999     219.798    -124.709
  P     -312.310     216.566    -124.781
  C     -312.005     214.897    -126.753
  O     -312.308     216.234    -126.353
  O     -311.473     215.367    -124.125
  O     -311.742     217.893    -124.407
  H     -310.724     215.725    -123.614
  H     -312.041     214.827    -127.820
  H     -312.722     214.226    -126.327
  H     -311.025     214.636    -126.411

 6  7  8  9  10  11  12  13  14  15  25  28  32  33  34  35 0
 6-311+G(2d,p)
 ****
 36  39  40 0
 6-311+G(2d,p)
 ****
 1  2  3  4  5  16  17  18  19  20  21  22  23  24 0
 3-21G
 ****
 26  27  29  30  31  37  38  41  42  43  44  45  46  47  48 0
 3-21G
 ****


