%nproc=1
%NoSave
%Mem=1900MB
#P OB98/GEN NMR

erre ene a

0 1
  C     -131.434    -228.122     362.930
  O     -131.586    -229.395     363.571
  P     -130.226    -230.123     364.034
  C     -131.092    -231.729     365.884
  O     -130.606    -231.596     364.553
  C     -132.592    -231.432     365.973
  O     -133.299    -232.250     365.011
  C     -133.220    -231.708     367.347
  O     -134.216    -230.709     367.605
  C     -133.942    -233.027     367.140
  O     -134.995    -233.218     368.083
  C     -134.405    -232.867     365.693
  N     -138.218    -235.853     364.241
  C     -138.250    -234.566     364.745
  N     -139.466    -234.008     364.905
  N     -137.174    -233.889     365.065
  C     -136.023    -234.559     364.821
  C     -135.867    -235.833     364.314
  C     -137.062    -236.584     364.006
  O     -137.106    -237.745     363.605
  N     -134.537    -236.170     364.210
  C     -133.896    -235.108     364.660
  N     -134.754    -234.111     365.048
  O     -129.827    -229.330     365.367
  O     -129.137    -230.063     363.018
  H     -135.248    -234.159     368.045
  H     -128.925    -228.965     365.279
  H     -139.075    -236.334     364.032
  H     -132.823    -235.018     364.751
  H     -135.264    -232.190     365.624
  H     -133.231    -233.855     367.249
  H     -140.328    -234.448     364.620
  H     -132.505    -231.745     368.174
  H     -139.505    -233.051     365.232
  H     -132.750    -230.384     365.688
  H     -130.550    -231.043     366.538
  H     -130.888    -232.749     366.227
  P     -133.932    -229.722     368.839
  C     -134.350    -227.269     368.079
  O     -134.892    -228.462     368.617
  O     -132.469    -229.147     368.523
  O     -134.010    -230.376     370.177
  H     -132.022    -228.890     369.355
  H     -133.343    -227.418     367.682
  H     -134.315    -226.508     368.860
  H     -134.997    -226.920     367.269
  H     -132.398    -227.737     362.669
  H     -130.844    -228.237     362.045
  H     -130.947    -227.442     363.598

 3  4  5  6  7  8  9  10  11  12  23  26  30  31  33  0
 6-311+G(2d,p)
 ****
 35  36  37  38 0
 6-311+G(2d,p)
 ****
 1  2  13  14  15  16  17  18  19  20  21  22  24  25  27  28  29 0
 3-21G
 ****
 32  34  39  40  41  42  43  44  45  46  47  48  49 0
 3-21G
 ****


