%nproc=1
%NoSave
%Mem=1900MB
#P OB98/GEN NMR

erre ene a

0 1
  C      206.336     120.405      53.682
  O      205.035     119.925      53.407
  H      206.996     119.564      53.906
  H      206.715     120.921      52.796
  H      206.325     121.106      54.520
  P      204.169     119.402      54.653
  C      204.286     117.328      56.209
  O      204.953     118.126      55.244
  C      205.241     116.282      56.785
  O      205.411     115.219      55.805
  C      206.635     116.824      57.137
  O      207.075     116.195      58.346
  C      207.496     116.339      55.987
  O      208.870     116.210      56.341
  C      206.823     115.010      55.651
  N      210.483     112.948      52.782
  C      210.307     113.001      54.120
  N      209.271     113.526      54.804
  C      208.322     113.968      53.961
  C      208.356     113.978      52.578
  C      209.513     113.449      51.982
  N      209.733     113.454      50.623
  N      207.216     114.572      52.071
  C      206.520     114.937      53.133
  N      207.149     114.597      54.296
  O      202.889     118.756      53.933
  O      203.782     120.439      55.650
  H      209.017     115.321      56.719
  H      202.212     119.442      53.794
  H      211.109     112.577      54.722
  H      205.582     115.474      53.113
  H      207.130     114.199      56.322
  H      207.421     117.040      55.151
  H      206.669     117.913      57.255
  H      204.769     115.831      57.668
  H      203.444     116.814      55.732
  H      210.639     113.154      50.294
  H      209.071     113.921      50.022
  H      203.899     117.972      57.007
  P      206.802     116.972      59.723
  C      207.939     118.884      61.079
  O      207.859     118.169      59.849
  O      207.291     115.929      60.833
  O      205.373     117.364      59.925
  H      206.752     116.017      61.641
  H      208.687     119.645      61.001
  H      208.198     118.209      61.868
  H      206.992     119.335      61.292

 6  7  8  9  10  11  12  13  14  15  25  28  32  33  34  35 0
 6-311+G(2d,p)
 ****
 36  39  40 0
 6-311+G(2d,p)
 ****
 1  2  3  4  5  16  17  18  19  20  21  22  23  24 0
 3-21G
 ****
 26  27  29  30  31  37  38  41  42  43  44  45  46  47 0
 3-21G
 ****
 48 0
 3-21G
 ****


