%nproc=1
%NoSave
%Mem=1900MB
#P OB98/GEN NMR

erre ene a

0 1
  C     1652.827    -888.320     592.035
  O     1651.847    -889.330     591.888
  H     1652.392    -887.470     592.571
  H     1653.147    -887.960     591.041
  H     1653.699    -888.680     592.576
  P     1652.318    -890.820     591.551
  C     1650.239    -891.530     592.887
  O     1651.065    -891.800     591.747
  C     1649.250    -892.680     593.117
  O     1649.958    -893.950     593.152
  C     1648.535    -892.570     594.491
  O     1647.359    -891.760     594.475
  C     1648.202    -894.030     594.782
  O     1646.933    -894.400     594.229
  C     1649.338    -894.780     594.121
  N     1650.846    -898.460     597.334
  C     1649.610    -898.330     596.697
  N     1648.689    -899.260     596.990
  N     1649.375    -897.340     595.882
  C     1650.365    -896.440     595.764
  C     1651.594    -896.480     596.358
  C     1651.929    -897.590     597.223
  O     1652.992    -897.800     597.795
  N     1652.347    -895.370     596.049
  C     1651.538    -894.620     595.346
  N     1650.338    -895.270     595.079
  O     1653.263    -891.190     592.779
  O     1653.044    -890.970     590.241
  H     1646.797    -895.340     594.417
  H     1653.959    -891.810     592.468
  H     1651.010    -899.280     597.936
  H     1651.746    -893.630     594.966
  H     1648.961    -895.680     593.588
  H     1648.139    -894.200     595.860
  H     1648.814    -900.000     597.677
  H     1649.220    -892.190     595.264
  H     1647.731    -899.080     596.695
  H     1648.513    -892.740     592.309
  H     1649.697    -890.610     592.660
  H     1650.843    -891.370     593.776
  P     1646.565    -891.440     595.798
  C     1645.779    -889.200     594.670
  O     1645.460    -890.310     595.488
  O     1647.626    -890.650     596.717
  O     1645.988    -892.640     596.515
  H     1648.036    -891.260     597.355
  H     1644.923    -888.564     594.581
  H     1646.070    -889.544     593.699
  H     1646.586    -888.652     595.111

 6  7  8  9  10  11  12  13  14  15  26  29  33  34 0
 6-311+G(2d,p)
 ****
 36  38  39  40  41 0
 6-311+G(2d,p)
 ****
 1  2  3  4  5  16  17  18  19  20  21  22  23  24  25 0
 3-21G
 ****
 27  28  30  31  32  35  37  42  43  44  45  46  47 0
 3-21G
 ****
 48  49 0
 3-21G
 ****


