%nproc=1
%NoSave
%Mem=1900MB
#P OB98/GEN NMR

erre ene a

0 1
  C     -121.880      66.823      18.391
  O     -121.719      67.608      19.559
  P     -122.863      67.499      20.680
  C     -123.353      70.040      20.385
  O     -123.875      68.716      20.432
  C     -124.058      70.845      19.294
  O     -124.011      70.128      18.044
  C     -125.534      71.108      19.557
  O     -125.709      72.129      20.524
  C     -126.005      71.475      18.152
  O     -125.646      72.833      17.851
  C     -125.189      70.507      17.278
  N     -128.410      68.426      13.885
  C     -127.883      69.667      13.984
  N     -127.050      70.151      14.930
  C     -126.762      69.206      15.838
  C     -127.240      67.906      15.880
  C     -128.104      67.518      14.844
  N     -128.643      66.252      14.749
  N     -126.744      67.234      16.977
  C     -125.967      68.111      17.581
  N     -125.933      69.311      16.923
  O     -122.098      67.919      22.020
  O     -123.503      66.151      20.799
  H     -125.934      73.014      16.933
  H     -122.447      67.427      22.788
  H     -128.166      70.363      13.200
  H     -125.407      67.922      18.488
  H     -124.844      70.970      16.348
  H     -127.090      71.385      18.023
  H     -126.036      70.191      19.890
  H     -123.515      71.790      19.168
  H     -122.282      70.003      20.162
  H     -129.367      66.105      14.060
  H     -128.527      65.628      15.534
  H     -123.487      70.508      21.365
  P     -126.458      71.730      21.889
  C     -128.512      72.911      20.890
  O     -128.013      71.723      21.481
  O     -126.324      73.078      22.737
  O     -125.951      70.493      22.543
  H     -126.583      73.862      22.221
  H     -129.558      72.751      20.618
  H     -127.940      73.156      19.990
  H     -128.454      73.736      21.607
  H     -121.053      66.990      17.732
  H     -122.789      67.098      17.899
  H     -121.919      65.788      18.659

 3  4  5  6  7  8  9  10  11  12  22  25  29  30  31  32 0
 6-311+G(2d,p)
 ****
 33  36  37 0
 6-311+G(2d,p)
 ****
 1  2  13  14  15  16  17  18  19  20  21  23  24  26 0
 3-21G
 ****
 27  28  34  35  38  39  40  41  42  43  44  45  46  47  48 0
 3-21G
 ****


