%nproc=1
%NoSave
%Mem=1900MB
#P OB98/GEN NMR

erre ene a

0 1
  C      -35.755     489.628      69.714
  O      -34.862     488.734      69.055
  P      -34.161     489.218      67.697
  C      -35.690     488.022      65.989
  O      -35.268     489.269      66.540
  C      -36.833     488.233      64.984
  O      -36.353     489.064      63.892
  C      -37.357     486.947      64.330
  O      -38.413     486.241      64.978
  C      -37.940     487.496      63.027
  O      -39.265     488.005      63.256
  C      -37.008     488.646      62.672
  N      -36.284     487.240      57.804
  C      -37.402     487.538      58.501
  N      -37.508     487.903      59.794
  C      -36.300     487.961      60.376
  C      -35.074     487.694      59.789
  C      -35.089     487.317      58.440
  N      -33.952     486.999      57.728
  N      -34.046     487.854      60.703
  C      -34.656     488.202      61.818
  N      -36.005     488.293      61.678
  O      -32.887     488.521      67.334
  O      -33.893     490.777      67.984
  H      -39.601     488.302      62.389
  H      -33.040     491.029      67.589
  H      -38.334     487.473      57.949
  H      -34.149     488.386      62.759
  H      -37.548     489.520      62.282
  H      -38.030     486.723      62.253
  H      -36.537     486.258      64.109
  H      -37.659     488.765      65.480
  H      -36.021     487.365      66.794
  H      -34.059     486.690      56.773
  H      -33.059     486.995      58.201
  H      -34.811     487.551      65.537
  P      -38.120     484.968      65.906
  C      -38.307     483.517      63.735
  O      -37.592     483.822      64.915
  O      -39.251     484.554      66.789
  O      -36.797     485.406      66.682
  H      -35.999     485.476      66.125
  H      -37.685     482.882      63.095
  H      -38.558     484.431      63.180
  H      -39.219     482.977      63.989
  H      -36.138     489.162      70.598
  H      -36.566     489.870      69.059
  H      -35.232     490.523      69.980

 3  4  5  6  7  8  9  10  11  12  22  25  29  30  31  32 0
 6-311+G(2d,p)
 ****
 33  36  37 0
 6-311+G(2d,p)
 ****
 1  2  13  14  15  16  17  18  19  20  21  23  24  26 0
 3-21G
 ****
 27  28  34  35  38  39  40  41  42  43  44  45  46  47  48 0
 3-21G
 ****


