%nproc=1
%NoSave
%Mem=1900MB
#P OB98/GEN NMR

erre ene a

0 1
  C      408.160     246.081     164.945
  O      408.155     247.059     165.983
  P      406.866     247.113     166.943
  C      407.817     245.240     168.468
  O      406.758     245.662     167.609
  C      407.281     244.903     169.855
  O      406.375     243.780     169.784
  C      408.340     244.525     170.870
  O      408.980     245.650     171.449
  C      407.501     243.793     171.914
  O      406.839     244.764     172.757
  C      406.480     243.050     171.040
  N      404.740     238.325     170.150
  C      404.109     239.472     170.471
  N      404.646     240.681     170.714
  C      405.980     240.646     170.615
  C      406.772     239.528     170.336
  C      406.097     238.326     170.089
  N      406.751     237.164     169.729
  N      408.103     239.881     170.339
  C      408.128     241.164     170.594
  N      406.868     241.676     170.771
  O      405.645     247.131     165.897
  O      406.828     248.275     167.880
  H      407.526     245.320     173.137
  H      404.857     247.525     166.322
  H      403.018     239.403     170.537
  H      409.025     241.771     170.668
  H      405.490     243.034     171.490
  H      408.101     243.161     172.573
  H      409.075     243.817     170.440
  H      406.706     245.769     170.214
  H      408.551     246.040     168.549
  H      406.182     236.389     169.389
  H      407.730     237.224     169.489
  H      408.306     244.361     168.033
  P      410.580     245.762     171.265
  C      410.404     248.072     170.100
  O      410.788     246.722     170.001
  O      410.976     244.311     170.724
  O      411.311     246.132     172.510
  H      411.906     244.111     170.947
  H      410.884     248.641     169.288
  H      410.691     248.509     171.051
  H      409.319     248.164     169.972
  H      409.070     246.157     164.388
  H      407.328     246.248     164.293
  H      408.086     245.104     165.375

 3  4  5  6  7  8  9  10  11  12  22  25  29  30  31  32 0
 6-311+G(2d,p)
 ****
 33  36  37 0
 6-311+G(2d,p)
 ****
 1  2  13  14  15  16  17  18  19  20  21  23  24  26 0
 3-21G
 ****
 27  28  34  35  38  39  40  41  42  43  44  45  46  47  48 0
 3-21G
 ****


