%nproc=1
%NoSave
%Mem=1900MB
#P OB98/GEN NMR

erre ene a

0 1
  C      254.316     731.777    -897.100
  O      253.693     731.715    -898.360
  H      255.279     731.260    -897.150
  H      253.694     731.274    -896.360
  H      254.487     732.816    -896.800
  P      252.257     732.445    -898.510
  C      253.693     734.596    -898.910
  O      252.553     734.009    -898.260
  C      253.766     736.085    -898.530
  O      252.541     736.762    -898.880
  C      254.042     736.318    -897.020
  O      255.021     737.345    -896.870
  C      252.704     736.778    -896.490
  O      252.818     737.584    -895.330
  C      252.095     737.474    -897.740
  N      250.623     737.479    -897.670
  C      250.009     738.748    -897.460
  O      250.704     739.768    -897.330
  N      248.640     738.802    -897.360
  C      247.934     737.723    -897.410
  N      246.588     737.864    -897.290
  C      248.548     736.390    -897.590
  C      249.860     736.331    -897.720
  O      251.486     731.988    -897.190
  O      251.521     732.158    -899.780
  H      253.535     738.227    -895.480
  H      250.525     732.190    -897.240
  H      247.925     735.485    -897.620
  H      250.402     735.421    -897.830
  H      252.441     738.529    -897.790
  H      252.093     735.887    -896.220
  H      254.385     735.431    -896.510
  H      254.567     736.544    -899.150
  H      246.211     738.787    -897.180
  H      253.549     734.508    -900.000
  H      245.953     737.048    -897.280
  H      254.594     734.072    -898.620
  P      256.565     736.852    -896.920
  C      257.471     738.741    -898.500
  O      257.172     737.347    -898.330
  O      256.420     735.281    -897.100
  O      257.325     737.227    -895.740
  H      256.535     734.833    -896.260
  H      257.863     738.904    -899.482
  H      258.195     739.042    -897.772
  H      256.577     739.316    -898.373

 6  7  8  9  10  11  12  13  14  15  16  26  30  31  32  33  35 0
 6-311+G(2d,p)
 ****
 37  38 0
 6-311+G(2d,p)
 ****
 1  2  3  4  5  17  18  19  20  21  22  23  24  25 0
 3-21G
 ****
 27  28  29  34  36  39  40  41  42  43  44  45  46 0
 3-21G
 ****


