%nproc=1
%NoSave
%Mem=1900MB
#P OB98/GEN NMR

erre ene a

0 1
  C       44.860     116.223     404.772
  O       44.055     116.468     405.909
  P       43.076     117.732     405.962
  C       41.254     116.077     405.263
  O       41.785     117.382     405.074
  C       39.987     115.866     404.435
  O       39.386     114.590     404.801
  C       38.913     116.946     404.614
  O       38.253     117.091     403.350
  C       37.959     116.307     405.612
  O       36.662     116.891     405.591
  C       38.009     114.858     405.148
  N       34.078     112.104     406.906
  C       34.171     112.985     405.886
  N       35.250     113.695     405.495
  C       36.306     113.427     406.280
  C       36.352     112.579     407.375
  C       35.169     111.882     407.676
  N       35.062     110.957     408.691
  N       37.604     112.615     407.962
  C       38.294     113.466     407.231
  N       37.573     113.928     406.167
  O       43.713     119.045     405.642
  O       42.505     117.720     407.454
  H       36.749     117.835     405.824
  H       42.921     118.436     407.979
  H       33.268     113.128     405.298
  H       39.315     113.777     407.425
  H       37.395     114.689     404.255
  H       38.364     116.415     406.627
  H       39.303     117.908     404.959
  H       40.280     115.785     403.379
  H       41.011     115.957     406.321
  H       34.214     110.419     408.733
  H       35.914     110.577     409.102
  H       42.010     115.324     404.996
  P       37.066     118.158     403.188
  C       38.217     119.746     401.541
  O       37.758     119.564     402.871
  O       36.063     118.170     404.292
  O       36.399     117.760     401.783
  H       35.507     118.157     401.724
  H       39.183     119.253     401.419
  H       38.333     120.819     401.348
  H       37.503     119.336     400.822
  H       45.440     115.337     404.929
  H       45.515     117.054     404.613
  H       44.235     116.092     403.914

 3  4  5  6  7  8  9  10  11  12  22  25  29  30  31  32 0
 6-311+G(2d,p)
 ****
 33  36  37 0
 6-311+G(2d,p)
 ****
 1  2  13  14  15  16  17  18  19  20  21  23  24  26 0
 3-21G
 ****
 27  28  34  35  38  39  40  41  42  43  44  45  46  47  48 0
 3-21G
 ****


