%nproc=1
%NoSave
%Mem=1900MB
#P OB98/GEN NMR

erre ene a

0 1
  C      252.400      18.878    -105.832
  O      253.254      19.929    -105.430
  H      252.124      19.035    -106.878
  H      251.490      18.880    -105.228
  H      252.903      17.912    -105.745
  P      253.942      19.853    -103.984
  C      252.138      21.384    -102.960
  O      252.788      20.119    -102.904
  C      251.008      21.433    -101.936
  O      249.911      20.599    -102.370
  C      251.401      20.907    -100.562
  O      252.197      21.837     -99.853
  C      250.032      20.637     -99.958
  O      249.452      21.837     -99.432
  C      249.232      20.134    -101.181
  N      249.093      18.679    -101.186
  C      248.152      18.148    -100.311
  O      247.450      18.833     -99.570
  N      248.081      16.781    -100.270
  C      248.938      15.922    -100.898
  O      248.996      14.724    -100.641
  C      249.869      16.536    -101.855
  C      249.914      17.867    -101.945
  O      255.176      20.675    -103.811
  O      254.251      18.292    -103.798
  H      255.199      18.130    -103.966
  H      250.094      22.178     -98.776
  H      247.430      16.387     -99.606
  H      250.518      15.882    -102.426
  H      250.617      18.346    -102.620
  H      248.231      20.581    -101.192
  H      250.088      19.910     -99.145
  H      251.933      19.954    -100.668
  H      250.645      22.467    -101.869
  H      251.725      21.522    -103.966
  H      252.874      22.172    -102.766
  P      253.524      21.355     -99.098
  C      252.425      21.423     -96.775
  O      253.090      20.617     -97.743
  O      254.576      22.399     -98.932
  O      254.065      20.145    -100.000
  H      255.012      20.293    -100.187
  H      252.185      20.827     -95.919
  H      251.525      21.819     -97.198
  H      253.065      22.229     -96.481

 6  7  8  9  10  11  12  13  14  15  16  27  31  32  33  34  35 0
 6-311+G(2d,p)
 ****
 36  37 0
 6-311+G(2d,p)
 ****
 1  2  3  4  5  17  18  19  20  21  22  23  24  25 0
 3-21G
 ****
 26  28  29  30  38  39  40  41  42  43  44  45 0
 3-21G
 ****


