%nproc=1
%NoSave
%Mem=1900MB
#P OB98/GEN NMR

erre ene a

0 1
  C      200.039     -98.816     -36.229
  O      200.010     -97.763     -35.260
  P      201.197     -96.679     -35.340
  C      200.153     -95.100     -37.125
  O      201.167     -96.045     -36.813
  C      200.768     -93.789     -37.611
  O      201.561     -93.996     -38.793
  C      199.748     -92.726     -37.997
  O      199.231     -92.056     -36.858
  C      200.606     -91.784     -38.832
  O      201.334     -90.891     -37.970
  C      201.570     -92.752     -39.539
  N      201.219     -90.888     -44.240
  C      201.656     -90.284     -43.076
  N      202.087     -89.007     -43.189
  N      201.672     -90.873     -41.911
  C      201.241     -92.157     -41.954
  C      200.781     -92.867     -43.040
  C      200.741     -92.190     -44.320
  O      200.334     -92.668     -45.374
  N      200.440     -94.149     -42.695
  C      200.720     -94.225     -41.409
  N      201.195     -93.037     -40.909
  O      202.512     -97.591     -35.357
  O      201.204     -95.705     -34.210
  H      202.062     -90.511     -38.500
  H      203.268     -97.094     -34.989
  H      201.222     -90.384     -45.108
  H      200.601     -95.111     -40.799
  H      202.600     -92.380     -39.532
  H      200.015     -91.162     -39.508
  H      202.172     -88.516     -44.067
  H      198.953     -93.153     -38.618
  H      202.445     -88.559     -42.354
  H      201.424     -93.405     -36.816
  H      199.541     -94.908     -36.241
  H      199.491     -95.528     -37.884
  P      197.866     -91.235     -37.049
  C      196.317     -93.075     -36.074
  O      196.721     -92.341     -37.213
  O      198.019     -90.611     -38.514
  O      197.626     -90.187     -36.015
  H      197.518     -89.776     -38.581
  H      196.214     -92.423     -35.201
  H      197.052     -93.859     -35.863
  H      195.351     -93.543     -36.280
  H      199.204     -99.467     -36.073
  H      200.948     -99.371     -36.126
  H      199.986     -98.397     -37.212

 3  4  5  6  7  8  9  10  11  12  23  26  30  31  33  0
 6-311+G(2d,p)
 ****
 35  36  37  38 0
 6-311+G(2d,p)
 ****
 1  2  13  14  15  16  17  18  19  20  21  22  24  25  27  28  29 0
 3-21G
 ****
 32  34  39  40  41  42  43  44  45  46  47  48  49 0
 3-21G
 ****


