%nproc=1
%NoSave
%Mem=1900MB
#P OB98/GEN NMR

erre ene a

0 1
  C     -527.073    -705.574    -161.572
  O     -525.966    -705.187    -162.363
  P     -524.554    -704.839    -161.698
  C     -523.506    -705.970    -163.741
  O     -523.437    -704.873    -162.849
  C     -522.145    -706.245    -164.401
  O     -521.878    -705.231    -165.403
  C     -520.966    -706.249    -163.406
  O     -520.069    -707.278    -163.826
  C     -520.350    -704.878    -163.622
  O     -518.986    -704.832    -163.201
  C     -520.583    -704.683    -165.119
  N     -520.490    -703.285    -165.520
  C     -519.226    -702.695    -165.484
  O     -518.272    -703.306    -165.008
  N     -519.084    -701.416    -165.980
  C     -520.141    -700.746    -166.306
  N     -519.949    -699.505    -166.860
  C     -521.515    -701.250    -166.119
  C     -521.616    -702.528    -165.767
  O     -524.214    -705.635    -160.482
  O     -524.660    -703.274    -161.344
  H     -524.444    -703.143    -160.397
  H     -518.654    -703.916    -163.321
  H     -522.365    -700.593    -166.279
  H     -522.582    -703.002    -165.629
  H     -519.846    -705.260    -165.701
  H     -520.904    -704.133    -163.046
  H     -521.276    -706.433    -162.377
  H     -522.206    -707.210    -164.909
  H     -518.993    -699.207    -167.008
  H     -524.232    -705.727    -164.526
  H     -520.672    -699.054    -167.418
  H     -523.868    -706.860    -163.217
  P     -519.330    -708.149    -162.701
  C     -518.929    -710.173    -164.290
  O     -518.355    -709.191    -163.438
  O     -520.519    -709.116    -162.206
  O     -518.764    -707.402    -161.534
  H     -520.335    -709.398    -161.287
  H     -518.124    -710.826    -164.645
  H     -519.406    -709.696    -165.144
  H     -519.654    -710.776    -163.743
  H     -527.915    -705.761    -162.205
  H     -527.311    -704.790    -160.884
  H     -526.830    -706.464    -161.029

 3  4  5  6  7  8  9  10  11  12  13  24  27  28  29  30  32 0
 6-311+G(2d,p)
 ****
 34  35 0
 6-311+G(2d,p)
 ****
 1  2  14  15  16  17  18  19  20  21  22  23  25  26 0
 3-21G
 ****
 31  33  36  37  38  39  40  41  42  43  44  45  46 0
 3-21G
 ****


