%nproc=1
%NoSave
%Mem=1900MB
#P OB98/GEN NMR

erre ene a

0 1
  C      127.331    1186.342    -193.754
  O      126.076    1186.944    -193.531
  H      128.004    1187.086    -194.186
  H      127.233    1185.515    -194.461
  H      127.763    1185.980    -192.815
  P      124.969    1186.071    -192.758
  C      125.532    1187.247    -190.508
  O      125.429    1186.020    -191.211
  C      124.670    1187.222    -189.244
  O      125.225    1186.240    -188.322
  C      124.598    1188.565    -188.513
  O      123.273    1188.730    -188.011
  C      125.562    1188.405    -187.353
  O      125.263    1189.259    -186.255
  C      125.440    1186.905    -187.053
  N      126.640    1186.394    -186.379
  C      126.436    1185.787    -185.139
  O      125.309    1185.706    -184.652
  N      127.535    1185.325    -184.441
  C      128.724    1185.536    -184.911
  N      129.764    1185.093    -184.165
  C      128.985    1186.234    -186.182
  C      127.904    1186.626    -186.868
  O      125.242    1184.587    -193.264
  O      123.559    1186.505    -192.967
  H      124.987    1190.129    -186.613
  H      124.417    1184.064    -193.298
  H      129.998    1186.415    -186.525
  H      127.992    1187.155    -187.816
  H      124.570    1186.704    -186.425
  H      126.588    1188.641    -187.698
  H      124.850    1189.412    -189.153
  H      123.670    1186.864    -189.525
  H      129.554    1184.637    -183.287
  H      125.188    1188.064    -191.149
  H      130.741    1185.240    -184.408
  H      126.583    1187.427    -190.240
  P      122.078    1188.695    -189.084
  C      121.008    1186.420    -188.433
  O      121.735    1187.161    -189.396
  O      122.767    1189.227    -190.421
  O      120.905    1189.536    -188.689
  H      122.442    1190.117    -190.632
  H      120.861    1185.421    -188.788
  H      120.058    1186.884    -188.269
  H      121.556    1186.395    -187.514

 6  7  8  9  10  11  12  13  14  15  16  26  30  31  32  33  35 0
 6-311+G(2d,p)
 ****
 37  38 0
 6-311+G(2d,p)
 ****
 1  2  3  4  5  17  18  19  20  21  22  23  24  25 0
 3-21G
 ****
 27  28  29  34  36  39  40  41  42  43  44  45  46 0
 3-21G
 ****


