%nproc=1
%NoSave
%Mem=1900MB
#P OB98/GEN NMR

erre ene a

0 1
  C       83.400    -150.430     383.653
  O       84.210    -150.066     384.752
  H       83.364    -151.522     383.592
  H       83.829    -150.045     382.723
  H       82.383    -150.054     383.777
  P       84.308    -148.520     385.159
  C       82.778    -148.884     387.201
  O       82.985    -148.170     385.991
  C       81.299    -148.834     387.587
  O       80.504    -149.536     386.605
  C       80.986    -149.499     388.921
  O       81.371    -148.675     390.006
  C       79.490    -149.719     388.788
  O       78.764    -148.517     389.088
  C       79.359    -150.087     387.294
  N       79.252    -151.528     387.071
  C       78.032    -152.117     387.394
  O       77.086    -151.492     387.875
  N       77.946    -153.465     387.172
  C       78.965    -154.281     386.778
  O       78.859    -155.498     386.682
  C       80.237    -153.608     386.474
  C       80.319    -152.285     386.631
  O       84.621    -147.576     384.046
  O       85.452    -148.497     386.282
  H       77.836    -148.684     388.836
  H       86.272    -148.133     385.902
  H       77.073    -153.911     387.412
  H       81.066    -154.220     386.146
  H       81.252    -151.774     386.419
  H       78.473    -149.608     386.860
  H       79.124    -150.489     389.465
  H       81.485    -150.472     388.982
  H       80.980    -147.783     387.589
  H       83.375    -148.418     387.993
  H       83.109    -149.919     387.065
  P       82.576    -149.121     390.959
  C       83.182    -146.781     391.831
  O       83.607    -147.897     391.055
  O       83.191    -150.442     390.637
  O       81.915    -149.145     392.419
  H       81.975    -150.049     392.786
  H       83.945    -146.031     391.824
  H       83.000    -147.095     392.838
  H       82.282    -146.379     391.414

 6  7  8  9  10  11  12  13  14  15  16  26  31  32  33  34  35 0
 6-311+G(2d,p)
 ****
 36  37 0
 6-311+G(2d,p)
 ****
 1  2  3  4  5  17  18  19  20  21  22  23  24  25 0
 3-21G
 ****
 27  28  29  30  38  39  40  41  42  43  44  45 0
 3-21G
 ****


