%nproc=1
%NoSave
%Mem=1900MB
#P OB98/GEN NMR

erre ene a

0 1
  C      -27.677     991.722     393.014
  O      -27.667     990.734     394.026
  P      -26.341     989.842     394.187
  C      -25.155     987.988     392.790
  O      -26.294     988.825     392.953
  C      -25.448     986.937     391.708
  O      -25.566     987.553     390.411
  C      -24.345     985.891     391.568
  O      -24.425     984.915     392.592
  C      -24.617     985.341     390.174
  O      -25.646     984.336     390.205
  C      -25.116     986.595     389.428
  N      -24.105     987.163     388.535
  C      -23.751     986.390     387.447
  O      -24.233     985.266     387.232
  N      -22.793     986.908     386.621
  C      -22.127     988.084     386.814
  O      -21.231     988.471     386.068
  C      -22.516     988.856     388.002
  C      -23.467     988.369     388.801
  O      -26.651     988.914     395.443
  O      -25.087     990.632     394.374
  H      -25.799     984.068     389.273
  H      -25.833     988.766     395.964
  H      -22.531     986.376     385.810
  H      -22.016     989.792     388.179
  H      -23.769     988.908     389.694
  H      -25.996     986.350     388.825
  H      -23.735     984.879     389.734
  H      -23.361     986.392     391.570
  H      -26.402     986.449     391.945
  H      -24.930     987.492     393.730
  H      -24.302     988.608     392.503
  P      -23.114     984.715     393.504
  C      -20.779     983.767     392.788
  O      -22.184     983.684     392.684
  O      -23.710     983.863     394.718
  O      -22.484     986.003     393.913
  H      -24.440     983.271     394.426
  H      -20.465     984.054     393.796
  H      -20.405     984.491     392.070
  H      -20.351     982.789     392.555
  H      -28.617     992.234     393.024
  H      -27.534     991.258     392.061
  H      -26.888     992.422     393.191

 3  4  5  6  7  8  9  10  11  12  13  23  28  29  30  31  32 0
 6-311+G(2d,p)
 ****
 33  34 0
 6-311+G(2d,p)
 ****
 1  2  14  15  16  17  18  19  20  21  22  24  25  26 0
 3-21G
 ****
 27  35  36  37  38  39  40  41  42  43  44  45 0
 3-21G
 ****


