%nproc=1
%NoSave
%Mem=1900MB
#P OB98/GEN NMR

erre ene a

0 1
  C      110.507     -66.781      -0.368
  O      110.576     -67.516      -1.575
  H      111.291     -66.019      -0.379
  H      110.662     -67.432       0.495
  H      109.537     -66.283      -0.289
  P      109.716     -68.867      -1.686
  C      111.744     -70.459      -1.738
  O      110.617     -70.004      -0.993
  C      112.505     -71.546      -0.981
  O      112.624     -71.208       0.417
  C      111.826     -72.907      -0.995
  O      111.771     -73.525      -2.259
  C      112.526     -73.618       0.152
  O      113.781     -74.176      -0.238
  C      112.751     -72.451       1.145
  N      111.837     -72.506       2.280
  C      112.266     -73.250       3.372
  O      113.336     -73.859       3.403
  N      111.403     -73.306       4.432
  C      110.163     -72.740       4.484
  O      109.427     -72.845       5.459
  C      109.747     -71.998       3.285
  C      110.591     -71.913       2.253
  O      109.245     -69.223      -3.065
  O      108.530     -68.655      -0.635
  H      114.287     -74.336       0.581
  H      107.800     -69.305      -0.785
  H      111.703     -73.829       5.241
  H      108.764     -71.547       3.285
  H      110.307     -71.368       1.355
  H      113.777     -72.477       1.536
  H      111.923     -74.432       0.561
  H      110.782     -72.771      -0.683
  H      113.518     -71.603      -1.395
  H      112.406     -69.601      -1.899
  H      111.411     -70.837      -2.709
  P      110.438     -74.131      -2.892
  C      111.300     -76.527      -2.300
  O      110.217     -75.605      -2.302
  O      110.239     -73.924      -4.358
  O      109.298     -73.287      -2.121
  H      108.559     -73.161      -2.749
  H      110.978     -77.454      -1.874
  H      112.106     -76.129      -1.720
  H      111.630     -76.692      -3.304

 6  7  8  9  10  11  12  13  14  15  16  26  31  32  33  34  35 0
 6-311+G(2d,p)
 ****
 36  37 0
 6-311+G(2d,p)
 ****
 1  2  3  4  5  17  18  19  20  21  22  23  24  25 0
 3-21G
 ****
 27  28  29  30  38  39  40  41  42  43  44  45 0
 3-21G
 ****


