%nproc=1
%NoSave
%Mem=1900MB
#P OB98/GEN NMR

erre ene a

0 1
  C     -636.333     880.422    -103.410
  O     -636.655     880.527    -104.784
  H     -635.344     879.966    -103.316
  H     -637.065     879.783    -102.917
  H     -636.318     881.408    -102.934
  P     -637.858     881.515    -105.180
  C     -639.735     879.718    -104.988
  O     -639.181     880.925    -104.477
  C     -640.602     879.036    -103.938
  O     -641.683     879.928    -103.582
  C     -641.233     877.709    -104.414
  O     -641.266     876.792    -103.294
  C     -642.663     878.121    -104.738
  O     -643.565     877.016    -104.685
  C     -642.906     879.174    -103.655
  N     -647.748     879.941    -102.535
  C     -646.788     879.155    -101.907
  N     -647.199     878.414    -100.855
  N     -645.543     879.107    -102.289
  C     -645.258     879.904    -103.344
  C     -646.107     880.719    -104.045
  C     -647.495     880.770    -103.632
  O     -648.389     881.417    -104.158
  N     -645.455     881.335    -105.095
  C     -644.220     880.866    -105.031
  N     -644.051     880.003    -103.982
  O     -638.080     881.179    -106.737
  O     -637.597     882.964    -104.949
  H     -643.835     876.882    -103.764
  H     -637.579     881.821    -107.286
  H     -648.692     879.928    -102.207
  H     -643.431     881.120    -105.725
  H     -643.100     878.741    -102.667
  H     -642.716     878.561    -105.736
  H     -648.125     878.432    -100.482
  H     -640.723     877.251    -105.258
  H     -646.493     877.860    -100.364
  H     -639.997     878.876    -103.025
  H     -638.918     879.047    -105.288
  H     -640.330     879.954    -105.892
  P     -640.113     875.709    -103.201
  C     -641.653     873.655    -103.654
  O     -640.519     874.416    -104.063
  O     -640.222     875.192    -101.689
  O     -638.737     876.257    -103.486
  H     -639.330     874.973    -101.338
  H     -641.792     872.833    -104.325
  H     -642.524     874.277    -103.668
  H     -641.495     873.284    -102.663

 6  7  8  9  10  11  12  13  14  15  26  29  33  34 0
 6-311+G(2d,p)
 ****
 36  38  39  40  41 0
 6-311+G(2d,p)
 ****
 1  2  3  4  5  16  17  18  19  20  21  22  23  24  25 0
 3-21G
 ****
 27  28  30  31  32  35  37  42  43  44  45  46  47 0
 3-21G
 ****
 48  49 0
 3-21G
 ****


