%nproc=1
%NoSave
%Mem=1900MB
#P OB98/GEN NMR

erre ene a

0 1
  C      487.533    -267.810    -326.231
  O      487.715    -268.965    -325.443
  H      487.848    -266.935    -325.653
  H      486.478    -267.692    -326.497
  H      488.142    -267.871    -327.137
  P      487.215    -270.354    -326.066
  C      484.904    -271.274    -326.825
  O      485.613    -270.334    -326.027
  C      483.483    -270.780    -327.059
  O      483.504    -269.624    -327.934
  C      482.575    -271.789    -327.743
  O      482.082    -272.776    -326.859
  C      481.474    -270.879    -328.268
  O      480.481    -270.620    -327.269
  C      482.245    -269.594    -328.634
  N      482.424    -269.466    -330.077
  C      481.376    -268.845    -330.758
  O      480.363    -268.426    -330.203
  N      481.519    -268.758    -332.118
  C      482.554    -269.264    -332.849
  O      482.594    -269.200    -334.072
  C      483.625    -269.921    -332.075
  C      483.507    -269.995    -330.745
  O      487.610    -271.425    -324.940
  O      487.804    -270.697    -327.394
  H      488.379    -271.944    -325.237
  H      479.711    -270.252    -327.743
  H      480.775    -268.311    -332.631
  H      484.459    -270.338    -332.628
  H      484.275    -270.490    -330.160
  H      481.703    -268.711    -328.278
  H      480.969    -271.332    -329.118
  H      483.096    -272.244    -328.598
  H      483.053    -270.470    -326.092
  H      484.864    -272.238    -326.306
  H      485.436    -271.407    -327.774
  P      481.566    -274.157    -327.490
  C      480.113    -274.626    -329.630
  O      480.454    -273.750    -328.567
  O      480.736    -274.753    -326.254
  O      482.666    -275.028    -327.990
  H      480.394    -274.047    -325.677
  H      479.356    -274.174    -330.236
  H      479.746    -275.548    -329.229
  H      480.980    -274.817    -330.227

 6  7  8  9  10  11  12  13  14  15  16  27  31  32  33  34  35 0
 6-311+G(2d,p)
 ****
 36  37 0
 6-311+G(2d,p)
 ****
 1  2  3  4  5  17  18  19  20  21  22  23  24  25 0
 3-21G
 ****
 26  28  29  30  38  39  40  41  42  43  44  45 0
 3-21G
 ****


