%nproc=1
%NoSave
%Mem=1900MB
#P OB98/GEN NMR

erre ene a

0 1
  C      661.819    -891.520       8.641
  O      660.978    -892.500       9.215
  H      662.775    -891.970       8.425
  H      661.965    -890.700       9.355
  H      661.370    -891.130       7.706
  P      659.431    -892.160       9.490
  C      657.243    -893.510       9.661
  O      658.666    -893.550       9.735
  C      656.702    -894.930       9.463
  O      657.109    -895.450       8.158
  C      657.270    -895.940      10.457
  O      656.625    -895.810      11.731
  C      656.961    -897.270       9.744
  O      655.609    -897.660       9.929
  C      657.254    -896.880       8.270
  N      658.576    -897.310       7.798
  C      658.720    -898.660       7.505
  O      657.789    -899.460       7.613
  N      659.957    -899.030       7.069
  C      661.080    -898.250       7.023
  O      662.188    -898.660       6.704
  C      660.869    -896.830       7.402
  C      659.666    -896.450       7.759
  O      658.789    -891.240       8.498
  O      659.462    -891.510      10.962
  H      655.497    -898.520       9.483
  H      659.361    -890.530      10.878
  H      660.091    -900.000       6.856
  H      661.737    -896.170       7.369
  H      659.482    -895.400       8.031
  H      656.496    -897.330       7.611
  H      657.581    -898.070      10.106
  H      658.350    -895.830      10.556
  H      655.611    -894.910       9.492
  H      656.959    -892.890       8.792
  H      656.841    -893.070      10.590
  P      657.230    -896.570      12.990
  C      657.545    -896.070      15.508
  O      656.855    -895.720      14.306
  O      658.668    -896.970      12.884
  O      656.294    -897.880      13.136
  H      656.826    -898.680      13.049
  H      657.213    -895.440      16.306
  H      658.598    -895.940      15.366
  H      657.341    -897.092      15.752

 6  7  8  9  10  11  12  13  14  15  16  26  31  32  33  34  35 0
 6-311+G(2d,p)
 ****
 36  37 0
 6-311+G(2d,p)
 ****
 1  2  3  4  5  17  18  19  20  21  22  23  24  25 0
 3-21G
 ****
 27  28  29  30  38  39  40  41  42  43  44  45 0
 3-21G
 ****


