%nproc=1
%NoSave
%Mem=1900MB
#P OB98/GEN NMR

erre ene a

0 1
  C      467.450     127.013     569.451
  O      468.267     128.013     568.871
  H      466.796     126.599     568.678
  H      466.830     127.439     570.245
  H      468.069     126.203     569.855
  P      469.293     128.808     569.808
  C      467.565     130.583     570.555
  O      468.407     129.499     570.953
  C      468.324     131.909     570.672
  O      467.562     132.977     570.078
  C      468.618     132.342     572.110
  O      469.769     131.663     572.612
  C      468.858     133.825     571.912
  O      470.169     134.035     571.349
  C      467.779     134.186     570.868
  N      465.346     137.778     573.508
  C      466.691     137.621     573.246
  N      467.513     138.553     573.802
  N      467.197     136.653     572.530
  C      466.268     135.763     572.104
  C      464.896     135.792     572.314
  C      464.351     136.913     573.054
  O      463.157     137.095     573.289
  N      464.295     134.671     571.813
  C      465.275     133.992     571.255
  N      466.498     134.605     571.414
  O      470.231     129.749     569.117
  O      470.071     127.660     570.603
  H      470.180     133.604     570.476
  H      470.889     127.395     570.136
  H      465.013     138.534     574.073
  H      465.165     133.057     570.722
  H      468.107     134.965     570.181
  H      468.805     134.392     572.845
  H      467.206     139.230     574.480
  H      467.751     132.204     572.766
  H      468.515     138.422     573.671
  H      469.257     131.812     570.092
  H      466.696     130.586     571.220
  H      467.226     130.443     569.526
  P      470.188     131.750     574.160
  C      471.401     133.985     573.673
  O      470.426     133.306     574.446
  O      471.316     130.849     574.547
  O      468.830     131.468     574.950
  H      468.641     130.490     575.076
  H      471.446     135.010     573.976
  H      471.136     133.931     572.638
  H      472.356     133.527     573.821

 6  7  8  9  10  11  12  13  14  15  26  29  33  34 0
 6-311+G(2d,p)
 ****
 36  38  39  40  41 0
 6-311+G(2d,p)
 ****
 1  2  3  4  5  16  17  18  19  20  21  22  23  24  25 0
 3-21G
 ****
 27  28  30  31  32  35  37  42  43  44  45  46  47 0
 3-21G
 ****
 48  49 0
 3-21G
 ****


