%nproc=1
%NoSave
%Mem=1900MB
#P OB98/GEN NMR

erre ene a

0 1
  C      -57.940    -365.780     -60.931
  O      -57.429    -365.585     -59.627
  H      -58.887    -365.239     -61.020
  H      -58.125    -366.843     -61.105
  H      -57.249    -365.395     -61.685
  P      -55.926    -366.041     -59.312
  C      -54.824    -368.116     -58.244
  O      -56.024    -367.381     -58.433
  C      -55.127    -369.602     -58.047
  O      -55.973    -369.755     -56.864
  C      -55.877    -370.257     -59.229
  O      -55.451    -371.627     -59.300
  C      -57.315    -370.154     -58.757
  O      -58.173    -370.967     -59.513
  C      -57.133    -370.507     -57.278
  N      -58.291    -370.199     -56.457
  C      -58.874    -371.248     -55.750
  O      -58.455    -372.404     -55.766
  N      -59.986    -370.924     -55.017
  C      -60.557    -369.690     -54.930
  O      -61.544    -369.453     -54.238
  C      -59.916    -368.625     -55.721
  C      -58.829    -368.927     -56.436
  O      -55.030    -364.984     -58.751
  O      -55.389    -366.578     -60.720
  H      -54.868    -365.878     -61.161
  H      -57.818    -371.877     -59.577
  H      -60.423    -371.672     -54.501
  H      -60.357    -367.642     -55.689
  H      -58.328    -368.168     -57.033
  H      -56.881    -371.567     -57.164
  H      -57.675    -369.124     -58.868
  H      -55.679    -369.761     -60.184
  H      -54.185    -370.136     -57.833
  H      -54.314    -367.720     -57.360
  H      -54.177    -367.980     -59.118
  P      -54.477    -372.190     -60.445
  C      -54.793    -372.498     -62.985
  O      -55.356    -372.688     -61.694
  O      -53.507    -373.215     -59.954
  O      -53.703    -370.906     -61.011
  H      -52.785    -371.164     -61.242
  H      -55.469    -372.868     -63.727
  H      -53.866    -373.028     -63.051
  H      -54.620    -371.455     -63.149

 6  7  8  9  10  11  12  13  14  15  16  27  31  32  33  34  35 0
 6-311+G(2d,p)
 ****
 36  37 0
 6-311+G(2d,p)
 ****
 1  2  3  4  5  17  18  19  20  21  22  23  24  25 0
 3-21G
 ****
 26  28  29  30  38  39  40  41  42  43  44  45 0
 3-21G
 ****


