%nproc=1
%NoSave
%Mem=1900MB
#P OB98/GEN NMR

erre ene a

0 1
  C      -96.370     120.250    1396.484
  O      -95.806     120.041    1397.762
  H      -96.951     119.375    1396.207
  H      -95.576     120.390    1395.752
  H      -97.017     121.123    1396.508
  P      -94.803     121.171    1398.309
  C      -95.708     120.376    1400.632
  O      -94.592     120.772    1399.844
  C      -95.454     119.022    1401.286
  O      -94.125     118.975    1401.858
  C      -96.412     118.681    1402.454
  O      -97.677     118.245    1402.006
  C      -95.634     117.557    1403.114
  O      -95.734     116.366    1402.317
  C      -94.178     118.132    1403.060
  N      -93.829     118.908    1404.253
  C      -93.160     118.219    1405.269
  O      -92.908     117.027    1405.159
  N      -92.837     118.901    1406.428
  C      -93.124     120.160    1406.545
  N      -92.777     120.775    1407.715
  C      -93.810     120.949    1405.482
  C      -94.125     120.256    1404.379
  O      -95.742     122.475    1398.409
  O      -93.546     121.371    1397.530
  H      -95.363     115.645    1402.840
  H      -95.257     123.207    1398.883
  H      -94.036     121.996    1405.631
  H      -94.619     120.764    1403.561
  H      -93.443     117.327    1402.907
  H      -95.969     117.322    1404.109
  H      -96.490     119.525    1403.153
  H      -95.490     118.264    1400.514
  H      -92.360     120.188    1408.434
  H      -96.588     120.307    1399.960
  H      -93.094     121.711    1407.953
  H      -95.900     121.136    1401.406
  P      -98.966     118.886    1402.745
  C     -100.280     118.391    1400.563
  O     -100.270     118.327    1401.991
  O      -98.918     120.450    1402.329
  O      -98.982     118.731    1404.241
  H      -99.243     121.017    1403.066
  H     -101.200     117.989    1400.194
  H      -99.461     117.822    1400.175
  H     -100.186     119.410    1400.251

 6  7  8  9  10  11  12  13  14  15  16  26  30  31  32  33  35 0
 6-311+G(2d,p)
 ****
 37  38 0
 6-311+G(2d,p)
 ****
 1  2  3  4  5  17  18  19  20  21  22  23  24  25 0
 3-21G
 ****
 27  28  29  34  36  39  40  41  42  43  44  45  46 0
 3-21G
 ****


