%nproc=1
%NoSave
%Mem=1900MB
#P OB98/GEN NMR

erre ene a

0 1
  C     -471.290    -501.731      54.255
  O     -472.569    -501.667      54.845
  H     -470.944    -500.713      54.062
  H     -471.347    -502.268      53.302
  H     -470.573    -502.225      54.913
  P     -473.173    -502.986      55.521
  C     -473.921    -502.048      57.807
  O     -472.972    -502.837      57.106
  C     -473.246    -500.831      58.452
  O     -472.830    -499.916      57.408
  C     -474.214    -500.067      59.358
  O     -473.541    -499.382      60.410
  C     -474.822    -499.043      58.411
  O     -475.355    -497.902      59.084
  C     -473.634    -498.727      57.508
  N     -472.457    -495.872      53.452
  C     -471.875    -495.889      54.705
  N     -470.842    -495.040      54.903
  N     -472.284    -496.659      55.682
  C     -473.369    -497.405      55.367
  C     -474.047    -497.455      54.169
  C     -473.562    -496.627      53.086
  O     -474.055    -496.553      51.963
  N     -475.106    -498.324      54.228
  C     -475.072    -498.797      55.459
  N     -474.024    -498.285      56.182
  O     -472.110    -504.126      55.143
  O     -474.556    -503.362      55.087
  H     -474.646    -497.535      59.643
  H     -472.522    -505.005      55.192
  H     -472.085    -495.283      52.729
  H     -475.771    -499.513      55.870
  H     -473.013    -497.938      57.949
  H     -475.649    -499.519      57.878
  H     -470.631    -494.301      54.246
  H     -474.983    -500.705      59.788
  H     -470.616    -494.817      55.875
  H     -472.339    -501.144      58.979
  H     -474.367    -502.691      58.570
  H     -474.722    -501.733      57.139
  P     -472.747    -500.245      61.502
  C     -470.635    -498.670      61.746
  O     -471.184    -499.925      61.413
  O     -472.862    -501.743      60.959
  O     -473.278    -500.112      62.896
  H     -473.380    -502.290      61.578
  H     -469.574    -498.697      61.608
  H     -470.856    -498.444      62.768
  H     -471.058    -497.917      61.115

 6  7  8  9  10  11  12  13  14  15  26  29  33  34 0
 6-311+G(2d,p)
 ****
 36  38  39  40  41 0
 6-311+G(2d,p)
 ****
 1  2  3  4  5  16  17  18  19  20  21  22  23  24  25 0
 3-21G
 ****
 27  28  30  31  32  35  37  42  43  44  45  46  47 0
 3-21G
 ****
 48  49 0
 3-21G
 ****


