%nproc=1
%NoSave
%Mem=1900MB
#P OB98/GEN NMR

erre ene a

0 1
  C      328.464    -478.045      10.045
  O      328.366    -478.059      11.453
  H      329.037    -477.164       9.743
  H      327.466    -477.983       9.604
  H      328.976    -478.937       9.675
  P      327.864    -479.394      12.179
  C      330.130    -480.560      11.769
  O      329.165    -480.153      12.728
  C      331.487    -480.815      12.435
  O      332.000    -479.560      12.954
  C      331.358    -481.768      13.628
  O      332.555    -482.504      13.862
  C      331.128    -480.819      14.795
  O      331.478    -481.385      16.057
  C      331.994    -479.628      14.390
  N      333.186    -475.458      17.069
  C      333.910    -476.620      16.897
  N      335.113    -476.679      17.518
  N      333.486    -477.642      16.197
  C      332.238    -477.473      15.697
  C      331.415    -476.379      15.822
  C      331.909    -475.239      16.565
  O      331.300    -474.197      16.767
  N      330.217    -476.578      15.182
  C      330.312    -477.795      14.674
  N      331.531    -478.368      14.940
  O      327.407    -480.334      10.965
  O      326.762    -479.211      13.178
  H      331.396    -480.678      16.725
  H      326.777    -481.009      11.275
  H      333.570    -474.691      17.591
  H      329.541    -478.293      14.103
  H      333.029    -479.771      14.722
  H      330.064    -480.576      14.833
  H      335.381    -476.001      18.215
  H      330.529    -482.464      13.524
  H      335.505    -477.611      17.661
  H      332.210    -481.169      11.693
  H      330.208    -479.758      11.033
  H      329.787    -481.453      11.243
  P      332.469    -484.102      13.946
  C      333.728    -484.433      11.640
  O      333.582    -484.755      13.005
  O      331.094    -484.446      13.207
  O      332.509    -484.648      15.339
  H      330.461    -484.841      13.833
  H      334.538    -484.996      11.225
  H      333.933    -483.388      11.540
  H      332.824    -484.671      11.119

 6  7  8  9  10  11  12  13  14  15  26  29  33  34 0
 6-311+G(2d,p)
 ****
 36  38  39  40  41 0
 6-311+G(2d,p)
 ****
 1  2  3  4  5  16  17  18  19  20  21  22  23  24  25 0
 3-21G
 ****
 27  28  30  31  32  35  37  42  43  44  45  46  47 0
 3-21G
 ****
 48  49 0
 3-21G
 ****


