%nproc=1
%NoSave
%Mem=1900MB
#P OB98/GEN NMR

erre ene a

0 1
  C      620.450      30.316      41.027
  O      620.249      28.942      40.776
  H      620.914      30.773      40.149
  H      621.120      30.442      41.883
  H      619.495      30.816      41.225
  P      619.373      28.114      41.834
  C      617.537      27.488      40.100
  O      618.544      27.027      40.990
  C      617.464      26.578      38.875
  O      618.669      26.770      38.081
  C      617.373      25.085      39.217
  O      616.528      24.450      38.245
  C      618.802      24.602      39.021
  O      618.909      23.204      38.767
  C      619.248      25.466      37.842
  N      620.698      25.543      37.715
  C      621.299      24.777      36.721
  O      620.691      24.109      35.888
  N      622.673      24.803      36.706
  C      623.482      25.482      37.572
  O      624.699      25.445      37.516
  C      622.786      26.262      38.604
  C      621.450      26.256      38.638
  O      618.258      29.170      42.279
  O      620.126      27.556      42.995
  H      618.561      29.695      43.044
  H      618.424      22.736      39.479
  H      623.125      24.255      35.987
  H      623.396      26.802      39.325
  H      620.909      26.811      39.396
  H      618.816      25.086      36.908
  H      619.397      24.829      39.916
  H      616.998      24.873      40.223
  H      616.619      26.894      38.251
  H      617.785      28.506      39.770
  H      616.573      27.506      40.621
  P      616.018      22.961      38.575
  C      613.430      23.249      38.870
  O      614.518      22.892      38.021
  O      615.851      23.034      40.161
  O      616.950      21.905      38.077
  H      615.557      23.908      40.472
  H      612.510      23.143      38.334
  H      613.543      24.265      39.187
  H      613.420      22.607      39.726

 6  7  8  9  10  11  12  13  14  15  16  27  31  32  33  34  35 0
 6-311+G(2d,p)
 ****
 36  37 0
 6-311+G(2d,p)
 ****
 1  2  3  4  5  17  18  19  20  21  22  23  24  25 0
 3-21G
 ****
 26  28  29  30  38  39  40  41  42  43  44  45 0
 3-21G
 ****


