%nproc=1
%NoSave
%Mem=1900MB
#P OB98/GEN NMR

erre ene a

0 1
  C       43.900    -137.303      55.902
  O       44.041    -138.708      55.982
  H       43.899    -137.013      54.848
  H       44.735    -136.808      56.405
  H       42.954    -136.997      56.355
  P       44.101    -139.339      57.455
  C       46.554    -138.591      57.716
  O       45.655    -139.693      57.673
  C       47.987    -139.080      57.931
  O       48.091    -139.628      59.269
  C       48.411    -140.172      56.947
  O       49.777    -139.976      56.587
  C       48.277    -141.452      57.754
  O       49.125    -142.490      57.273
  C       48.609    -140.965      59.163
  N       49.532    -144.794      62.405
  C       50.347    -144.062      61.617
  N       50.018    -143.043      60.792
  C       48.703    -142.778      60.869
  C       47.749    -143.439      61.622
  C       48.210    -144.502      62.417
  N       47.383    -145.271      63.203
  N       46.496    -142.900      61.398
  C       46.694    -141.921      60.535
  N       48.009    -141.820      60.173
  O       43.149    -140.456      57.722
  O       43.911    -138.042      58.373
  H       48.868    -143.327      57.712
  H       44.449    -137.295      58.050
  H       51.400    -144.330      61.646
  H       45.923    -141.272      60.134
  H       49.688    -140.940      59.356
  H       47.241    -141.812      57.703
  H       47.792    -140.191      56.049
  H       48.662    -138.218      57.887
  H       46.275    -137.908      58.526
  H       47.799    -146.006      63.754
  H       46.397    -145.057      63.240
  H       46.475    -138.055      56.766
  P       50.104    -139.203      55.220
  C       49.910    -141.295      53.721
  O       50.753    -140.246      54.187
  O       50.824    -137.905      55.361
  O       48.643    -138.976      54.597
  H       48.618    -138.101      54.160
  H       50.456    -141.917      53.044
  H       49.064    -140.876      53.217
  H       49.576    -141.880      54.552

 6  7  8  9  10  11  12  13  14  15  25  28  32  33  34  35 0
 6-311+G(2d,p)
 ****
 36  39  40 0
 6-311+G(2d,p)
 ****
 1  2  3  4  5  16  17  18  19  20  21  22  23  24 0
 3-21G
 ****
 26  27  29  30  31  37  38  41  42  43  44  45  46  47 0
 3-21G
 ****
 48 0
 3-21G
 ****


