%nproc=1
%NoSave
%Mem=1900MB
#P OB98/GEN NMR

erre ene a

0 1
  C     -291.848     158.690    -183.551
  O     -292.473     157.846    -184.494
  H     -292.092     158.332    -182.547
  H     -292.214     159.714    -183.652
  H     -290.762     158.667    -183.673
  P     -292.271     158.162    -186.054
  C     -292.764     155.815    -187.038
  O     -293.254     157.124    -186.794
  C     -293.921     154.828    -187.133
  O     -294.676     154.782    -185.902
  C     -294.958     155.155    -188.202
  O     -294.517     154.902    -189.524
  C     -296.079     154.223    -187.776
  O     -295.756     152.875    -188.161
  C     -296.037     154.396    -186.241
  N     -296.988     155.397    -185.762
  C     -297.552     155.173    -184.499
  O     -297.256     154.173    -183.848
  N     -298.469     156.073    -184.014
  C     -298.813     157.097    -184.736
  N     -299.731     157.952    -184.209
  C     -298.258     157.360    -186.078
  C     -297.363     156.484    -186.523
  O     -290.860     158.168    -186.544
  O     -293.036     159.548    -186.285
  H     -295.553     152.892    -189.114
  H     -292.932     159.795    -187.237
  H     -298.598     158.210    -186.651
  H     -296.914     156.605    -187.504
  H     -296.240     153.443    -185.735
  H     -297.039     154.469    -188.231
  H     -295.312     156.189    -188.101
  H     -293.492     153.830    -187.285
  H     -300.094     157.746    -183.288
  H     -292.085     155.548    -186.223
  H     -300.112     158.732    -184.731
  H     -292.213     155.792    -187.982
  P     -294.972     155.949    -190.658
  C     -293.160     155.321    -192.430
  O     -294.530     155.312    -192.059
  O     -293.966     157.170    -190.445
  O     -296.407     156.366    -190.596
  H     -294.388     157.881    -189.925
  H     -293.047     154.858    -193.388
  H     -292.590     154.780    -191.703
  H     -292.810     156.331    -192.478

 6  7  8  9  10  11  12  13  14  15  16  26  30  31  32  33  35 0
 6-311+G(2d,p)
 ****
 37  38 0
 6-311+G(2d,p)
 ****
 1  2  3  4  5  17  18  19  20  21  22  23  24  25 0
 3-21G
 ****
 27  28  29  34  36  39  40  41  42  43  44  45  46 0
 3-21G
 ****


