%nproc=1
%NoSave
%Mem=1900MB
#P OB98/GEN NMR

erre ene a

0 1
  C      241.653      19.366      31.650
  O      242.874      19.582      30.939
  P      243.411      21.083      30.780
  C      245.539      20.866      32.235
  O      245.013      21.070      30.925
  C      246.934      20.225      32.169
  O      246.803      18.859      31.705
  C      247.905      20.902      31.192
  O      248.711      21.973      31.673
  C      248.857      19.751      30.878
  O      249.858      19.647      31.907
  C      247.962      18.519      30.909
  N      249.239      15.659      26.860
  C      249.864      15.889      28.035
  N      249.452      16.663      29.063
  C      248.265      17.232      28.795
  C      247.511      17.083      27.637
  C      248.044      16.260      26.635
  N      247.420      16.032      25.431
  N      246.345      17.825      27.718
  C      246.409      18.418      28.897
  N      247.539      18.076      29.590
  O      242.702      22.119      31.584
  O      243.221      21.352      29.205
  H      249.379      19.587      32.756
  H      242.940      22.280      29.080
  H      250.813      15.381      28.172
  H      245.664      19.093      29.284
  H      248.442      17.659      31.388
  H      249.396      19.902      29.932
  H      247.384      21.215      30.274
  H      247.368      20.207      33.172
  H      244.861      20.212      32.798
  H      247.889      15.463      24.749
  H      246.555      16.517      25.219
  H      245.539      21.831      32.743
  P      249.028      23.257      30.762
  C      247.689      24.949      32.244
  O      248.941      24.518      31.746
  O      248.198      23.376      29.529
  O      250.598      23.112      30.498
  H      251.153      23.245      31.281
  H      247.867      25.666      33.049
  H      247.115      24.109      32.642
  H      247.128      25.448      31.449
  H      241.432      18.319      31.669
  H      240.858      19.890      31.161
  H      241.755      19.727      32.652

 3  4  5  6  7  8  9  10  11  12  22  25  29  30  31  32 0
 6-311+G(2d,p)
 ****
 33  36  37 0
 6-311+G(2d,p)
 ****
 1  2  13  14  15  16  17  18  19  20  21  23  24  26 0
 3-21G
 ****
 27  28  34  35  38  39  40  41  42  43  44  45  46  47  48 0
 3-21G
 ****


