%nproc=1
%NoSave
%Mem=1900MB
#P OB98/GEN NMR

erre ene a

0 1
  C      341.130    -900.196      76.083
  O      342.493    -900.480      76.333
  H      340.672    -901.075      75.615
  H      341.039    -899.346      75.402
  H      340.598    -899.988      77.015
  P      343.353    -899.430      77.187
  C      342.342    -900.208      79.435
  O      343.521    -900.065      78.654
  C      342.617    -901.063      80.688
  O      343.034    -902.396      80.246
  C      343.739    -900.510      81.588
  O      343.434    -900.923      82.927
  C      344.945    -901.275      81.044
  O      346.078    -901.162      81.877
  C      344.309    -902.654      80.871
  N      345.086    -903.606      80.081
  C      345.927    -904.484      80.757
  O      346.065    -904.511      81.991
  N      346.642    -905.344      79.976
  C      346.585    -905.436      78.614
  O      347.233    -906.258      77.969
  C      345.696    -904.480      77.951
  C      344.985    -903.629      78.701
  O      342.875    -898.024      77.158
  O      344.829    -899.573      76.579
  H      345.009    -898.818      75.977
  H      345.903    -901.651      82.708
  H      347.252    -905.997      80.451
  H      345.632    -904.516      76.876
  H      344.299    -902.923      78.245
  H      344.099    -903.101      81.848
  H      345.241    -900.852      80.082
  H      343.833    -899.426      81.546
  H      341.688    -901.185      81.239
  H      341.574    -900.693      78.819
  H      341.984    -899.220      79.734
  P      343.186    -899.886      84.132
  C      340.693    -899.251      83.826
  O      341.652    -899.997      84.592
  O      343.632    -898.492      83.837
  O      344.005    -900.498      85.380
  H      344.242    -899.766      85.984
  H      339.715    -899.407      84.230
  H      340.716    -899.580      82.808
  H      340.934    -898.210      83.869

 6  7  8  9  10  11  12  13  14  15  16  27  31  32  33  34  35 0
 6-311+G(2d,p)
 ****
 36  37 0
 6-311+G(2d,p)
 ****
 1  2  3  4  5  17  18  19  20  21  22  23  24  25 0
 3-21G
 ****
 26  28  29  30  38  39  40  41  42  43  44  45 0
 3-21G
 ****


