%nproc=1
%NoSave
%Mem=1900MB
#P OB98/GEN NMR

erre ene a

0 1
  C     -360.318    -443.959     441.851
  O     -361.170    -444.741     441.027
  P     -361.613    -444.112     439.621
  C     -363.273    -445.011     437.833
  O     -362.263    -445.312     438.789
  C     -363.271    -446.042     436.709
  O     -362.031    -445.989     435.980
  C     -363.405    -447.482     437.191
  O     -364.749    -447.768     437.537
  C     -362.901    -448.257     435.978
  O     -363.960    -448.488     435.036
  C     -361.833    -447.296     435.387
  N     -360.478    -447.771     435.592
  C     -359.881    -448.392     434.488
  O     -360.515    -448.528     433.439
  N     -358.607    -448.889     434.617
  C     -357.984    -448.765     435.757
  N     -356.724    -449.265     435.826
  C     -358.590    -448.130     436.943
  C     -359.829    -447.673     436.795
  O     -360.219    -443.853     438.879
  O     -362.436    -442.869     439.725
  H     -363.604    -449.142     434.400
  H     -360.297    -443.130     438.229
  H     -358.022    -448.061     437.863
  H     -360.344    -447.189     437.623
  H     -361.993    -447.165     434.310
  H     -362.500    -449.232     436.256
  H     -362.747    -447.658     438.046
  H     -364.086    -445.794     436.009
  H     -356.334    -449.697     434.991
  H     -363.076    -444.019     437.401
  H     -356.144    -449.205     436.651
  H     -364.245    -444.982     438.335
  P     -365.140    -449.301     437.787
  C     -366.391    -450.556     439.641
  O     -365.979    -449.296     439.145
  O     -363.745    -449.933     438.259
  O     -365.729    -450.055     436.636
  H     -363.826    -450.901     438.346
  H     -366.808    -450.427     440.641
  H     -365.538    -451.243     439.697
  H     -367.158    -450.983     438.985
  H     -360.103    -444.495     442.752
  H     -360.804    -443.037     442.092
  H     -359.406    -443.756     441.330

 3  4  5  6  7  8  9  10  11  12  13  21  23  27  28  29  30  32 0
 6-311+G(2d,p)
 ****
 34  35 0
 6-311+G(2d,p)
 ****
 1  2  14  15  16  17  18  19  20  22  24  25  26 0
 3-21G
 ****
 31  33  36  37  38  39  40  41  42  43  44  45  46 0
 3-21G
 ****


