%nproc=1
%NoSave
%Mem=1900MB
#P OB98/GEN NMR

erre ene a

0 1
  C     -155.304     133.869     119.386
  O     -156.658     133.571     119.660
  H     -155.263     134.725     118.708
  H     -154.826     133.014     118.902
  H     -154.770     134.122     120.307
  P     -156.956     132.501     120.815
  C     -157.440     133.764     123.035
  O     -157.970     133.208     121.842
  C     -158.573     134.301     123.909
  O     -158.013     134.719     125.187
  C     -159.304     135.510     123.311
  O     -160.689     135.418     123.659
  C     -158.683     136.684     124.045
  O     -159.504     137.844     124.075
  C     -158.455     136.070     125.430
  N     -157.473     136.810     126.218
  C     -157.941     137.868     126.992
  O     -159.125     138.169     127.126
  N     -156.975     138.601     127.634
  C     -155.629     138.400     127.561
  O     -154.814     139.104     128.145
  C     -155.196     137.274     126.722
  C     -156.124     136.545     126.097
  O     -155.579     132.455     121.627
  O     -157.390     131.153     120.345
  H     -154.986     131.777     121.253
  H     -159.116     138.460     124.729
  H     -157.297     139.371     128.198
  H     -154.135     137.091     126.631
  H     -155.837     135.721     125.453
  H     -159.401     136.010     125.982
  H     -157.731     136.955     123.577
  H     -159.201     135.603     122.225
  H     -159.273     133.484     124.119
  H     -156.765     134.588     122.783
  H     -156.875     132.995     123.571
  P     -161.664     134.682     122.617
  C     -161.068     132.142     122.857
  O     -161.916     133.220     123.224
  O     -160.673     134.438     121.388
  O     -162.885     135.477     122.301
  H     -159.761     134.245     121.666
  H     -161.387     131.251     123.357
  H     -160.061     132.368     123.139
  H     -161.117     131.994     121.798

 6  7  8  9  10  11  12  13  14  15  16  27  31  32  33  34  35 0
 6-311+G(2d,p)
 ****
 36  37 0
 6-311+G(2d,p)
 ****
 1  2  3  4  5  17  18  19  20  21  22  23  24  25 0
 3-21G
 ****
 26  28  29  30  38  39  40  41  42  43  44  45 0
 3-21G
 ****


