%nproc=1
%NoSave
%Mem=1900MB
#P OB98/GEN NMR

erre ene a

0 1
  C        2.530    -310.836    -239.743
  O        3.244    -311.072    -238.549
  P        3.673    -309.852    -237.600
  C        2.990    -310.909    -235.354
  O        4.071    -310.503    -236.185
  C        3.523    -311.550    -234.073
  O        4.255    -312.771    -234.362
  C        4.523    -310.689    -233.318
  O        4.044    -309.488    -232.748
  C        5.140    -311.705    -232.371
  O        4.311    -311.927    -231.229
  C        5.176    -312.973    -233.265
  N        6.532    -313.264    -233.741
  C        7.095    -314.448    -233.269
  O        6.524    -315.221    -232.500
  N        8.375    -314.706    -233.688
  C        9.137    -313.892    -234.476
  O       10.297    -314.165    -234.778
  C        8.493    -312.649    -234.928
  C        7.237    -312.396    -234.544
  O        2.686    -308.738    -237.513
  O        5.099    -309.416    -238.186
  H        4.767    -312.573    -230.654
  H        5.777    -310.113    -238.168
  H        8.808    -315.547    -233.348
  H        9.067    -311.991    -235.565
  H        6.740    -311.484    -234.865
  H        4.813    -313.845    -232.706
  H        6.117    -311.378    -232.002
  H        5.313    -310.384    -234.019
  H        2.671    -311.828    -233.447
  H        2.383    -311.643    -235.892
  H        2.353    -310.045    -235.131
  P        4.995    -308.404    -232.048
  C        3.735    -306.266    -232.797
  O        4.120    -307.098    -231.725
  O        6.342    -308.194    -232.659
  O        5.182    -309.044    -230.583
  H        6.061    -308.799    -230.240
  H        3.187    -305.406    -232.395
  H        3.075    -306.807    -233.484
  H        4.613    -305.896    -233.334
  H        2.338    -311.767    -240.234
  H        3.109    -310.207    -240.386
  H        1.602    -310.355    -239.514

 3  4  5  6  7  8  9  10  11  12  13  23  28  29  30  31  32 0
 6-311+G(2d,p)
 ****
 33  34 0
 6-311+G(2d,p)
 ****
 1  2  14  15  16  17  18  19  20  21  22  24  25  26  27 0
 3-21G
 ****
 35  36  37  38  39  40  41  42  43  44  45 0
 3-21G
 ****


