%nproc=1
%NoSave
%Mem=1900MB
#P OB98/GEN NMR

erre ene a

0 1
  C      111.933     442.255     181.784
  O      110.757     442.441     181.017
  H      111.743     442.593     182.801
  H      112.754     442.842     181.367
  H      112.206     441.196     181.810
  P      110.787     442.018     179.468
  C      112.427     442.478     177.525
  O      111.945     442.903     178.796
  C      113.754     443.150     177.213
  O      114.755     442.747     178.173
  C      114.320     442.807     175.837
  O      113.695     443.595     174.838
  C      115.785     443.139     176.043
  O      115.963     444.572     176.004
  C      116.026     442.620     177.475
  N      119.909     439.505     178.460
  C      119.869     440.890     178.424
  N      121.033     441.534     178.644
  N      118.783     441.580     178.177
  C      117.702     440.801     177.912
  C      117.633     439.421     177.901
  C      118.815     438.680     178.233
  O      118.899     437.447     178.288
  N      116.383     438.993     177.517
  C      115.694     440.106     177.334
  N      116.455     441.235     177.551
  O      109.478     442.091     178.740
  O      111.394     440.538     179.479
  H      115.678     444.868     175.120
  H      110.689     439.867     179.515
  H      120.783     439.035     178.641
  H      114.646     440.155     177.061
  H      116.767     443.222     178.015
  H      116.440     442.712     175.282
  H      121.923     441.064     178.547
  H      114.237     441.730     175.616
  H      121.032     442.546     178.570
  H      113.621     444.232     177.326
  H      111.671     442.760     176.781
  H      112.544     441.385     177.509
  P      114.085     443.433     173.283
  C      116.346     442.887     172.158
  O      115.686     443.513     173.250
  O      113.403     444.379     172.360
  O      113.803     441.894     172.958
  H      112.879     441.711     172.665
  H      117.403     443.015     172.259
  H      116.019     443.332     171.241
  H      116.112     441.843     172.151

 6  7  8  9  10  11  12  13  14  15  26  29  33  34 0
 6-311+G(2d,p)
 ****
 36  38  39  40  41 0
 6-311+G(2d,p)
 ****
 1  2  3  4  5  16  17  18  19  20  21  22  23  24  25 0
 3-21G
 ****
 27  28  30  31  32  35  37  42  43  44  45  46  47 0
 3-21G
 ****
 48  49 0
 3-21G
 ****


