%nproc=1
%NoSave
%Mem=1900MB
#P OB98/GEN NMR

erre ene a

0 1
  C      -60.494    -158.082    -164.045
  O      -59.185    -158.584    -163.825
  P      -58.209    -157.731    -162.877
  C      -57.297    -155.291    -162.925
  O      -57.933    -156.346    -163.640
  C      -56.748    -154.255    -163.896
  O      -55.851    -154.865    -164.848
  C      -57.813    -153.563    -164.740
  O      -58.459    -152.512    -164.037
  C      -56.967    -153.001    -165.873
  O      -56.321    -151.787    -165.450
  C      -55.933    -154.114    -166.083
  N      -55.287    -155.079    -171.011
  C      -54.619    -154.192    -170.187
  N      -53.687    -153.410    -170.779
  N      -54.841    -154.085    -168.904
  C      -55.806    -154.922    -168.455
  C      -56.536    -155.845    -169.169
  C      -56.288    -155.946    -170.591
  O      -56.882    -156.674    -171.381
  N      -57.416    -156.518    -168.365
  C      -57.221    -156.008    -167.166
  N      -56.286    -155.007    -167.173
  O      -56.811    -158.501    -163.001
  O      -58.659    -157.614    -161.461
  H      -57.016    -151.221    -165.056
  H      -56.218    -158.241    -162.267
  H      -55.086    -155.120    -171.995
  H      -57.745    -156.321    -166.266
  H      -54.935    -153.710    -166.286
  H      -57.559    -152.756    -166.761
  H      -53.517    -153.402    -171.773
  H      -58.531    -154.286    -165.144
  H      -53.230    -152.707    -170.214
  H      -56.176    -153.518    -163.316
  H      -56.481    -155.705    -162.328
  H      -58.021    -154.830    -162.244
  P      -60.049    -152.384    -164.235
  C      -61.527    -151.951    -166.326
  O      -60.248    -151.848    -165.731
  O      -60.422    -151.126    -163.317
  O      -60.819    -153.606    -163.863
  H      -61.351    -151.186    -163.022
  H      -61.554    -151.313    -167.215
  H      -62.312    -151.626    -165.641
  H      -61.710    -152.983    -166.634
  H      -61.028    -158.748    -164.691
  H      -60.434    -157.116    -164.500
  H      -61.008    -158.004    -163.110

 3  4  5  6  7  8  9  10  11  12  23  26  30  31 0
 6-311+G(2d,p)
 ****
 33  35  36  37  38 0
 6-311+G(2d,p)
 ****
 1  2  13  14  15  16  17  18  19  20  21  22  24  25 0
 3-21G
 ****
 27  28  29  32  34  39  40  41  42  43  44  45  46  47  48  49 0
 3-21G
 ****


