%nproc=1
%NoSave
%Mem=1900MB
#P OB98/GEN NMR

erre ene a

0 1
  C      507.836    -662.025     299.864
  O      508.254    -660.673     299.671
  P      509.215    -660.371     298.423
  C      509.109    -657.746     298.437
  O      509.864    -658.925     298.656
  C      508.128    -657.494     299.601
  O      508.814    -657.774     300.850
  C      507.616    -656.070     299.719
  O      506.430    -656.066     300.527
  C      508.742    -655.400     300.488
  O      508.327    -654.181     301.080
  C      509.174    -656.511     301.468
  N      510.619    -656.496     301.780
  C      511.042    -655.883     302.960
  O      510.268    -655.330     303.762
  N      512.387    -655.859     303.180
  C      513.346    -656.422     302.387
  O      514.536    -656.293     302.598
  C      512.838    -657.176     301.238
  C      511.533    -657.179     300.993
  O      508.203    -660.156     297.208
  O      510.203    -661.454     298.155
  H      509.133    -653.752     301.438
  H      508.209    -660.937     296.629
  H      512.703    -655.359     304.003
  H      513.558    -657.704     300.618
  H      511.138    -657.720     300.129
  H      508.638    -656.424     302.422
  H      509.564    -655.166     299.804
  H      507.420    -655.571     298.772
  H      507.292    -658.202     299.515
  H      508.571    -657.825     297.500
  H      509.782    -656.888     298.346
  P      505.010    -655.884     299.793
  C      503.551    -657.301     301.361
  O      503.901    -655.993     300.936
  O      504.800    -656.732     298.585
  O      505.004    -654.314     299.437
  H      504.338    -654.149     298.735
  H      503.226    -657.255     302.404
  H      504.399    -657.993     301.281
  H      502.731    -657.668     300.750
  H      507.204    -662.083     300.725
  H      508.695    -662.647     300.009
  H      507.296    -662.358     299.002

 3  4  5  6  7  8  9  10  11  12  13  23  28  29  30  31  32 0
 6-311+G(2d,p)
 ****
 33  34 0
 6-311+G(2d,p)
 ****
 1  2  14  15  16  17  18  19  20  21  22  24  25  26  27 0
 3-21G
 ****
 35  36  37  38  39  40  41  42  43  44  45 0
 3-21G
 ****


