%nproc=1
%NoSave
%Mem=1900MB
#P OB98/GEN NMR

erre ene a

0 1
  C      -36.239     125.797    -136.214
  O      -36.040     127.182    -136.413
  H      -36.502     125.338    -137.169
  H      -37.065     125.644    -135.513
  H      -35.330     125.324    -135.830
  P      -35.351     128.002    -135.221
  C      -32.855     128.125    -135.909
  O      -34.104     128.796    -135.854
  C      -31.811     128.998    -136.612
  O      -32.078     128.976    -138.042
  C      -31.823     130.465    -136.160
  O      -30.475     130.941    -136.107
  C      -32.573     131.174    -137.274
  O      -32.230     132.556    -137.374
  C      -32.166     130.341    -138.487
  N      -34.187     133.582    -141.779
  C      -33.150     133.753    -140.879
  N      -32.572     134.974    -140.844
  N      -32.723     132.808    -140.082
  C      -33.375     131.630    -140.252
  C      -34.416     131.338    -141.101
  C      -34.899     132.400    -141.959
  O      -35.827     132.320    -142.758
  N      -34.829     130.037    -140.954
  C      -34.038     129.545    -140.016
  N      -33.136     130.470    -139.564
  O      -34.658     126.854    -134.343
  O      -36.276     128.835    -134.396
  H      -32.514     132.991    -136.540
  H      -35.073     126.817    -133.461
  H      -34.485     134.349    -142.359
  H      -34.082     128.537    -139.625
  H      -31.192     130.637    -138.892
  H      -33.652     131.103    -137.095
  H      -32.815     135.729    -141.464
  H      -32.296     130.610    -135.187
  H      -31.782     135.109    -140.218
  H      -30.822     128.547    -136.466
  H      -32.979     127.189    -136.459
  H      -32.519     127.898    -134.890
  P      -29.662     130.680    -134.747
  C      -28.244     128.563    -135.224
  O      -28.263     129.980    -135.119
  O      -30.496     129.508    -134.045
  O      -29.558     131.883    -133.863
  H      -30.982     129.862    -133.275
  H      -27.256     128.237    -135.475
  H      -28.926     128.253    -135.987
  H      -28.535     128.132    -134.289

 6  7  8  9  10  11  12  13  14  15  26  29  33  34 0
 6-311+G(2d,p)
 ****
 36  38  39  40  41 0
 6-311+G(2d,p)
 ****
 1  2  3  4  5  16  17  18  19  20  21  22  23  24  25 0
 3-21G
 ****
 27  28  30  31  32  35  37  42  43  44  45  46  47 0
 3-21G
 ****
 48  49 0
 3-21G
 ****


