%nproc=1
%NoSave
%Mem=1900MB
#P OB98/GEN NMR

erre ene a

0 1
  C     -136.325      -0.027     -24.483
  O     -135.828      -0.887     -25.485
  P     -135.088      -2.258     -25.114
  C     -135.913      -4.430     -24.001
  O     -136.021      -3.011     -24.042
  C     -136.279      -4.951     -22.606
  O     -135.183      -4.637     -21.689
  C     -137.563      -4.307     -22.045
  O     -138.544      -5.243     -21.594
  C     -137.027      -3.360     -20.983
  O     -137.983      -2.993     -20.006
  C     -135.788      -4.114     -20.491
  N     -134.876      -3.259     -19.734
  C     -135.138      -3.098     -18.377
  O     -136.070      -3.631     -17.780
  N     -134.317      -2.234     -17.708
  C     -133.358      -1.445     -18.267
  O     -132.724      -0.619     -17.623
  C     -133.153      -1.631     -19.712
  C     -133.891      -2.529     -20.368
  O     -133.662      -2.122     -24.697
  O     -135.301      -3.151     -26.426
  H     -137.511      -2.552     -19.275
  H     -136.231      -3.316     -26.662
  H     -134.495      -2.107     -16.723
  H     -132.404      -1.010     -20.186
  H     -133.762      -2.687     -21.433
  H     -136.061      -4.966     -19.864
  H     -136.716      -2.436     -21.487
  H     -138.083      -3.730     -22.817
  H     -136.376      -6.037     -22.670
  H     -134.882      -4.711     -24.229
  H     -136.554      -4.874     -24.770
  P     -140.115      -4.958     -21.508
  C     -142.046      -4.794     -23.243
  O     -140.658      -4.702     -22.991
  O     -140.521      -3.933     -20.502
  O     -140.735      -6.387     -21.137
  H     -141.557      -6.264     -20.628
  H     -142.193      -5.098     -24.283
  H     -142.504      -3.812     -23.098
  H     -142.527      -5.525     -22.588
  H     -136.780       0.827     -24.940
  H     -135.520       0.291     -23.854
  H     -137.052      -0.547     -23.895

 3  4  5  6  7  8  9  10  11  12  13  23  28  29  30  31  32 0
 6-311+G(2d,p)
 ****
 33  34 0
 6-311+G(2d,p)
 ****
 1  2  14  15  16  17  18  19  20  21  22  24  25  26  27 0
 3-21G
 ****
 35  36  37  38  39  40  41  42  43  44  45 0
 3-21G
 ****


