%nproc=1
%NoSave
%Mem=1900MB
#P OB98/GEN NMR

erre ene a

0 1
  C     -120.252     104.786     393.687
  O     -120.875     103.757     394.461
  P     -121.435     102.450     393.723
  C     -122.999     101.861     395.705
  O     -121.970     101.411     394.824
  C     -122.619     101.548     397.155
  O     -121.538     102.393     397.617
  C     -123.761     101.816     398.136
  O     -124.877     100.942     398.074
  C     -123.030     101.909     399.466
  O     -122.775     100.620     400.024
  C     -121.702     102.582     399.038
  N     -121.651     104.007     399.397
  C     -121.166     104.306     400.662
  O     -120.831     103.442     401.476
  N     -121.111     105.634     400.990
  C     -121.514     106.670     400.190
  O     -121.463     107.845     400.537
  C     -122.042     106.293     398.868
  C     -122.088     104.999     398.536
  O     -120.553     101.865     392.675
  O     -122.805     102.980     393.065
  H     -122.151     100.747     400.766
  H     -122.881     102.587     392.173
  H     -120.746     105.875     401.895
  H     -122.380     107.087     398.217
  H     -122.473     104.701     397.567
  H     -120.847     102.094     399.526
  H     -123.609     102.473     400.206
  H     -124.159     102.816     397.924
  H     -122.274     100.513     397.211
  H     -123.944     101.377     395.445
  H     -123.150     102.938     395.557
  P     -126.346     101.420     397.656
  C     -128.018     101.105     399.616
  O     -127.414     100.541     398.467
  O     -126.600     101.643     396.198
  O     -126.443     102.837     398.412
  H     -126.994     103.443     397.864
  H     -128.702     100.366     400.051
  H     -128.593     101.993     399.346
  H     -127.260     101.354     400.367
  H     -119.939     105.579     394.334
  H     -120.950     105.165     392.970
  H     -119.401     104.384     393.178

 3  4  5  6  7  8  9  10  11  12  13  23  28  29  30  31  32 0
 6-311+G(2d,p)
 ****
 33  34 0
 6-311+G(2d,p)
 ****
 1  2  14  15  16  17  18  19  20  21  22  24  25  26  27 0
 3-21G
 ****
 35  36  37  38  39  40  41  42  43  44  45 0
 3-21G
 ****


