%nproc=1
%NoSave
%Mem=1900MB
#P OB98/GEN NMR

erre ene a

0 1
  C      -51.765     -60.406      73.278
  O      -52.758     -59.426      73.038
  H      -51.273     -60.647      72.332
  H      -52.229     -61.313      73.676
  H      -51.018     -60.030      73.981
  P      -53.435     -58.769      74.332
  C      -54.276     -61.134      75.091
  O      -54.590     -59.773      74.829
  C      -55.515     -61.869      75.594
  O      -55.215     -63.253      75.862
  C      -56.050     -61.354      76.920
  O      -56.690     -60.104      76.800
  C      -56.995     -62.486      77.301
  O      -58.278     -62.335      76.682
  C      -56.260     -63.729      76.743
  N      -55.746     -64.573      77.806
  C      -56.718     -65.245      78.560
  O      -57.912     -65.114      78.288
  N      -56.312     -66.013      79.620
  C      -55.052     -66.082      79.920
  N      -54.720     -66.835      81.002
  C      -53.998     -65.389      79.153
  C      -54.411     -64.657      78.119
  O      -54.258     -57.548      73.708
  O      -52.480     -58.376      75.407
  H      -58.696     -63.221      76.696
  H      -54.805     -57.794      72.945
  H      -52.960     -65.490      79.436
  H      -53.704     -64.115      77.501
  H      -56.939     -64.331      76.126
  H      -57.165     -62.523      78.380
  H      -55.244     -61.319      77.664
  H      -56.281     -61.823      74.810
  H      -55.479     -67.247      81.532
  H      -53.466     -61.208      75.823
  H      -53.784     -66.898      81.376
  H      -53.921     -61.579      74.156
  P      -56.055     -58.778      77.434
  C      -58.110     -58.791      78.988
  O      -57.253     -58.000      78.173
  O      -55.264     -57.935      76.492
  O      -55.210     -59.339      78.674
  H      -55.731     -59.822      79.338
  H      -58.863     -58.168      79.424
  H      -57.537     -59.254      79.764
  H      -58.575     -59.546      78.389

 6  7  8  9  10  11  12  13  14  15  16  26  30  31  32  33  35 0
 6-311+G(2d,p)
 ****
 37  38 0
 6-311+G(2d,p)
 ****
 1  2  3  4  5  17  18  19  20  21  22  23  24  25 0
 3-21G
 ****
 27  28  29  34  36  39  40  41  42  43  44  45  46 0
 3-21G
 ****


