%nproc=1
%NoSave
%Mem=1900MB
#P OB98/GEN NMR

erre ene a

0 1
  C      349.070    -164.277     -68.326
  O      349.663    -165.506     -68.694
  H      348.457    -164.437     -67.435
  H      348.431    -163.905     -69.134
  H      349.846    -163.542     -68.096
  P      350.581    -165.496     -70.010
  C      348.673    -166.132     -71.621
  O      349.567    -165.111     -71.198
  C      348.460    -166.062     -73.135
  O      347.706    -164.861     -73.439
  C      349.766    -166.008     -73.931
  O      349.619    -166.773     -75.125
  C      349.906    -164.537     -74.285
  O      350.690    -164.329     -75.456
  C      348.445    -164.109     -74.416
  N      346.306    -159.838     -76.208
  C      346.186    -161.131     -76.577
  N      346.783    -162.212     -76.032
  C      347.533    -161.857     -74.973
  C      347.755    -160.585     -74.484
  C      347.103    -159.533     -75.156
  N      347.239    -158.211     -74.803
  N      348.623    -160.622     -73.409
  C      348.911    -161.901     -73.245
  N      348.289    -162.684     -74.180
  O      351.398    -166.722     -70.239
  O      351.413    -164.143     -69.816
  H      351.482    -164.902     -75.403
  H      350.841    -163.414     -69.513
  H      345.533    -161.322     -77.424
  H      349.569    -162.304     -72.484
  H      348.034    -164.322     -75.410
  H      350.393    -164.005     -73.456
  H      350.620    -166.373     -73.360
  H      347.840    -166.913     -73.441
  H      347.708    -166.025     -71.111
  H      346.723    -157.525     -75.330
  H      347.813    -157.968     -74.010
  H      349.108    -167.096     -71.344
  P      349.935    -168.344     -75.069
  C      351.734    -168.366     -76.922
  O      351.452    -168.579     -75.541
  O      348.920    -169.236     -75.701
  O      350.027    -168.619     -73.490
  H      349.637    -169.495     -73.298
  H      352.771    -168.554     -77.107
  H      351.503    -167.354     -77.181
  H      351.140    -169.030     -77.514

 6  7  8  9  10  11  12  13  14  15  25  28  32  33  34  35 0
 6-311+G(2d,p)
 ****
 36  39  40 0
 6-311+G(2d,p)
 ****
 1  2  3  4  5  16  17  18  19  20  21  22  23  24 0
 3-21G
 ****
 26  27  29  30  31  37  38  41  42  43  44  45  46  47 0
 3-21G
 ****
 48 0
 3-21G
 ****


