%nproc=1
%NoSave
%Mem=1900MB
#P OB98/GEN NMR

erre ene a

0 1
  C       30.653    -336.286     285.566
  O       31.747    -336.847     284.831
  P       31.692    -338.388     284.399
  C       33.153    -339.437     286.243
  O       31.847    -339.311     285.704
  C       33.105    -339.901     287.715
  O       32.269    -341.088     287.822
  C       34.494    -340.243     288.281
  O       34.757    -339.598     289.536
  C       34.498    -341.763     288.308
  O       35.418    -342.293     289.253
  C       33.012    -342.115     288.515
  N       32.691    -343.456     288.040
  C       32.930    -344.497     288.923
  O       33.453    -344.350     290.022
  N       32.600    -345.749     288.464
  C       32.143    -346.054     287.218
  O       31.902    -347.199     286.846
  C       31.975    -344.917     286.299
  C       32.252    -343.682     286.747
  O       32.573    -338.764     283.254
  O       30.148    -338.594     284.012
  H       35.207    -343.260     289.391
  H       30.105    -339.191     283.231
  H       32.742    -346.518     289.111
  H       31.641    -345.116     285.300
  H       32.154    -342.830     286.095
  H       32.752    -342.060     289.573
  H       34.809    -342.128     287.328
  H       35.298    -339.892     287.622
  H       32.634    -339.098     288.284
  H       33.676    -338.474     286.192
  H       33.741    -340.135     285.629
  P       35.758    -338.360     289.712
  C       38.102    -339.158     290.465
  O       37.250    -338.844     289.379
  O       35.618    -337.590     290.983
  O       35.378    -337.420     288.462
  H       35.398    -336.478     288.742
  H       39.138    -339.107     290.106
  H       37.896    -340.179     290.805
  H       37.980    -338.456     291.296
  H       30.852    -335.255     285.771
  H       30.533    -336.816     286.488
  H       29.756    -336.368     284.989

 3  4  5  6  7  8  9  10  11  12  13  23  28  29  30  31  32 0
 6-311+G(2d,p)
 ****
 33  34 0
 6-311+G(2d,p)
 ****
 1  2  14  15  16  17  18  19  20  21  22  24  25  26  27 0
 3-21G
 ****
 35  36  37  38  39  40  41  42  43  44  45 0
 3-21G
 ****


