%nproc=1
%NoSave
%Mem=1900MB
#P OB98/GEN NMR

erre ene a

0 1
  C      131.068      50.532     -77.572
  O      129.929      51.385     -77.712
  P      130.242      52.938     -77.980
  C      129.582      53.651     -80.387
  O      129.160      53.472     -79.041
  C      128.378      53.734     -81.334
  O      127.438      52.650     -81.073
  C      127.591      55.053     -81.214
  O      127.118      55.372     -82.531
  C      126.435      54.649     -80.309
  O      125.359      55.574     -80.330
  C      126.142      53.260     -80.866
  N      121.417      51.508     -80.055
  C      121.930      52.315     -81.007
  N      123.206      52.740     -81.153
  C      123.984      52.235     -80.181
  C      123.606      51.400     -79.136
  C      122.248      51.030     -79.093
  N      121.711      50.225     -78.113
  N      124.691      51.113     -78.322
  C      125.681      51.828     -78.829
  N      125.323      52.449     -79.992
  O      131.611      52.906     -78.810
  O      130.354      53.751     -76.732
  H      124.659      55.279     -79.711
  H      132.369      53.088     -78.224
  H      121.221      52.670     -81.752
  H      126.669      51.926     -78.397
  H      125.638      53.300     -81.837
  H      126.793      54.584     -79.273
  H      128.185      55.887     -80.832
  H      128.741      53.613     -82.364
  H      130.219      52.817     -80.692
  H      120.724      50.019     -78.163
  H      122.298      49.860     -77.375
  H      130.204      54.552     -80.451
  P      128.166      55.913     -83.617
  C      129.216      53.873     -84.773
  O      128.148      54.804     -84.783
  O      129.554      55.573     -82.882
  O      128.022      57.342     -84.024
  H      129.568      54.650     -82.570
  H      129.043      53.134     -85.560
  H      129.266      53.363     -83.808
  H      130.160      54.388     -84.976
  H      130.742      49.528     -77.398
  H      131.662      50.863     -76.746
  H      131.652      50.567     -78.468

 3  4  5  6  7  8  9  10  11  12  22  25  29  30  31  32 0
 6-311+G(2d,p)
 ****
 33  36  37 0
 6-311+G(2d,p)
 ****
 1  2  13  14  15  16  17  18  19  20  21  23  24  26 0
 3-21G
 ****
 27  28  34  35  38  39  40  41  42  43  44  45  46  47  48 0
 3-21G
 ****


