%nproc=1
%NoSave
%Mem=1900MB
#P OB98/GEN NMR

erre ene a

0 1
  C      442.983    -103.232     -93.825
  O      443.298    -104.351     -93.012
  P      442.328    -104.664     -91.772
  C      443.572    -103.385     -89.835
  O      442.493    -103.432     -90.765
  C      443.143    -102.646     -88.567
  O      442.710    -101.306     -88.901
  C      441.958    -103.271     -87.830
  O      442.352    -104.414     -87.082
  C      441.477    -102.095     -86.993
  O      442.292    -101.947     -85.817
  C      441.701    -100.908     -87.953
  N      440.483    -100.462     -88.629
  C      440.194     -99.105     -88.544
  O      440.907     -98.289     -87.942
  N      439.033     -98.702     -89.159
  C      438.127     -99.515     -89.779
  O      437.087     -99.105     -90.274
  C      438.472    -100.944     -89.802
  C      439.609    -101.346     -89.240
  O      443.123    -105.873     -91.077
  O      440.925    -104.981     -92.188
  H      444.080    -105.827     -91.259
  H      443.220    -102.054     -86.112
  H      438.813     -97.713     -89.135
  H      437.770    -101.625     -90.285
  H      439.880    -102.396     -89.234
  H      442.121    -100.052     -87.400
  H      440.432    -102.211     -86.660
  H      441.185    -103.555     -88.551
  H      444.015    -102.567     -87.899
  H      444.419    -102.870     -90.291
  H      443.880    -104.408     -89.594
  P      441.186    -105.183     -86.286
  C      441.968    -104.448     -83.903
  O      440.979    -104.397     -84.904
  O      441.943    -106.533     -85.859
  O      439.953    -105.405     -87.095
  H      442.853    -106.373     -85.548
  H      441.828    -103.596     -83.228
  H      442.974    -104.399     -84.323
  H      441.858    -105.369     -83.330
  H      443.708    -103.144     -94.607
  H      442.992    -102.344     -93.228
  H      442.011    -103.364     -94.253

 3  4  5  6  7  8  9  10  11  12  13  24  28  29  30  31  32 0
 6-311+G(2d,p)
 ****
 33  34 0
 6-311+G(2d,p)
 ****
 1  2  14  15  16  17  18  19  20  21  22  23  25  26  27 0
 3-21G
 ****
 35  36  37  38  39  40  41  42  43  44  45 0
 3-21G
 ****


