%nproc=1
%NoSave
%Mem=1900MB
#P OB98/GEN NMR

erre ene a

0 1
  C       -6.893     -53.348     -13.109
  O       -7.358     -52.788     -11.899
  H       -5.976     -53.906     -12.904
  H       -6.666     -52.558     -13.828
  H       -7.633     -54.033     -13.530
  P       -8.767     -52.024     -11.891
  C       -7.847     -49.664     -12.360
  O       -8.613     -50.754     -12.857
  C       -8.392     -48.351     -12.916
  O       -7.680     -47.231     -12.347
  C       -8.244     -48.212     -14.428
  O       -9.203     -49.001     -15.102
  C       -8.412     -46.709     -14.586
  O       -9.798     -46.335     -14.536
  C       -7.664     -46.180     -13.339
  N       -6.294     -45.756     -13.637
  C       -6.098     -44.389     -13.804
  O       -7.003     -43.562     -13.717
  N       -4.821     -44.005     -14.123
  C       -3.776     -44.846     -14.374
  O       -2.715     -44.475     -14.868
  C       -4.023     -46.270     -14.108
  C       -5.255     -46.657     -13.773
  O       -9.337     -51.728     -10.544
  O       -9.726     -52.996     -12.731
  H      -10.283     -53.509     -12.115
  H      -10.199     -46.647     -15.370
  H       -4.678     -43.021     -14.294
  H       -3.201     -46.963     -14.233
  H       -5.468     -47.706     -13.601
  H       -8.198     -45.325     -12.905
  H       -8.017     -46.343     -15.535
  H       -7.229     -48.488     -14.732
  H       -9.447     -48.266     -12.620
  H       -6.808     -49.792     -12.682
  H       -7.884     -49.669     -11.266
  P       -8.805     -49.873     -16.382
  C       -9.700     -48.208     -18.113
  O       -8.550     -48.871     -17.607
  O       -9.730     -51.004     -16.690
  O       -7.334     -50.414     -16.047
  H       -7.320     -51.386     -16.151
  H       -9.416     -47.569     -18.923
  H      -10.145     -47.623     -17.336
  H      -10.405     -48.933     -18.462

 6  7  8  9  10  11  12  13  14  15  16  27  31  32  33  34  35 0
 6-311+G(2d,p)
 ****
 36  37 0
 6-311+G(2d,p)
 ****
 1  2  3  4  5  17  18  19  20  21  22  23  24  25 0
 3-21G
 ****
 26  28  29  30  38  39  40  41  42  43  44  45 0
 3-21G
 ****


