%nproc=1
%NoSave
%Mem=1900MB
#P OB98/GEN NMR

erre ene a

0 1
  C     -570.623    -678.321    1174.261
  O     -569.296    -678.364    1173.796
  P     -568.159    -677.391    1174.388
  C     -567.016    -678.961    1176.091
  O     -566.957    -678.373    1174.796
  C     -565.848    -679.898    1176.310
  O     -566.070    -681.106    1175.557
  C     -564.479    -679.377    1175.848
  O     -563.805    -678.544    1176.811
  C     -563.716    -680.684    1175.698
  O     -563.278    -681.142    1176.999
  C     -564.783    -681.615    1175.128
  N     -562.457    -683.813    1171.130
  C     -562.301    -683.968    1172.463
  N     -562.951    -683.342    1173.469
  C     -563.859    -682.481    1172.991
  C     -564.143    -682.241    1171.640
  C     -563.392    -682.936    1170.688
  N     -563.565    -682.781    1169.333
  N     -565.156    -681.281    1171.535
  C     -565.480    -680.985    1172.760
  N     -564.733    -681.711    1173.693
  O     -568.643    -676.475    1175.461
  O     -567.597    -676.623    1173.118
  H     -562.572    -680.533    1177.290
  H     -567.094    -675.834    1173.401
  H     -561.564    -684.700    1172.774
  H     -566.222    -680.274    1173.066
  H     -564.705    -682.649    1175.531
  H     -562.811    -680.572    1175.105
  H     -564.542    -678.882    1174.878
  H     -565.815    -680.174    1177.392
  H     -567.954    -679.529    1176.169
  H     -563.065    -683.447    1168.704
  H     -564.366    -682.264    1169.003
  H     -567.051    -678.166    1176.850
  P     -563.270    -677.126    1176.281
  C     -564.906    -675.653    1177.712
  O     -563.586    -676.089    1177.463
  O     -563.781    -676.726    1174.945
  O     -561.686    -677.302    1176.360
  H     -561.310    -677.400    1177.268
  H     -564.921    -675.092    1178.630
  H     -565.588    -676.497    1177.809
  H     -565.239    -674.988    1176.888
  H     -571.209    -679.047    1173.736
  H     -571.029    -677.345    1174.092
  H     -570.641    -678.538    1175.309

 3  4  5  6  7  8  9  10  11  12  22  25  29  30  31  32 0
 6-311+G(2d,p)
 ****
 33  36  37 0
 6-311+G(2d,p)
 ****
 1  2  13  14  15  16  17  18  19  20  21  23  24  26 0
 3-21G
 ****
 27  28  34  35  38  39  40  41  42  43  44  45  46  47  48 0
 3-21G
 ****


