%nproc=1
%NoSave
%Mem=1900MB
#P OB98/GEN NMR

erre ene a

0 1
  C     -376.817     939.372    -225.512
  O     -376.429     938.116    -224.958
  P     -375.324     937.253    -225.731
  C     -375.493     935.369    -227.535
  O     -376.031     936.578    -226.998
  C     -376.614     934.394    -227.883
  O     -377.222     933.896    -226.658
  C     -377.725     934.987    -228.737
  O     -378.227     933.950    -229.602
  C     -378.798     935.330    -227.713
  O     -380.094     935.490    -228.263
  C     -378.647     934.131    -226.770
  N     -379.275     934.351    -225.458
  C     -380.613     934.040    -225.328
  O     -381.325     933.590    -226.243
  N     -381.184     934.312    -224.112
  C     -380.570     934.933    -223.075
  O     -381.161     935.273    -222.045
  C     -379.145     935.245    -223.260
  C     -378.554     934.943    -224.425
  O     -375.058     936.011    -224.745
  O     -374.055     937.985    -226.047
  H     -380.005     935.992    -229.088
  H     -374.251     936.157    -224.235
  H     -382.164     934.089    -223.993
  H     -378.608     935.716    -222.424
  H     -377.517     935.176    -224.594
  H     -379.075     933.238    -227.233
  H     -378.535     936.269    -227.206
  H     -377.426     935.861    -229.332
  H     -376.161     933.529    -228.380
  H     -374.833     934.926    -226.796
  H     -374.892     935.609    -228.432
  P     -378.337     934.262    -231.181
  C     -380.337     935.030    -232.694
  O     -379.738     935.004    -231.402
  O     -378.584     932.802    -231.761
  O     -377.116     934.931    -231.747
  H     -379.217     932.272    -231.225
  H     -380.138     934.110    -233.239
  H     -379.962     935.874    -233.246
  H     -381.413     935.135    -232.562
  H     -377.557     939.825    -224.886
  H     -377.222     939.220    -226.491
  H     -375.963     940.013    -225.575

 3  4  5  6  7  8  9  10  11  12  13  23  28  29  30  31  32 0
 6-311+G(2d,p)
 ****
 33  34 0
 6-311+G(2d,p)
 ****
 1  2  14  15  16  17  18  19  20  21  22  24  25  26 0
 3-21G
 ****
 27  35  36  37  38  39  40  41  42  43  44  45 0
 3-21G
 ****


