%nproc=1
%NoSave
%Mem=1900MB
#P OB98/GEN NMR

erre ene a

0 1
  C     -119.038      27.967    -427.127
  O     -119.247      26.579    -427.308
  P     -117.980      25.674    -427.695
  C     -118.843      25.449    -430.146
  O     -117.776      25.840    -429.288
  C     -118.539      25.862    -431.584
  O     -118.482      27.303    -431.696
  C     -117.193      25.369    -432.103
  O     -117.257      24.019    -432.542
  C     -116.973      26.301    -433.282
  O     -117.736      25.846    -434.420
  C     -117.540      27.625    -432.754
  N     -113.313      30.161    -433.909
  C     -114.212      29.516    -434.741
  N     -113.911      29.496    -436.059
  N     -115.308      28.946    -434.316
  C     -115.476      29.037    -432.976
  C     -114.658      29.654    -432.051
  C     -113.441      30.268    -432.528
  O     -112.582      30.810    -431.840
  N     -115.171      29.549    -430.782
  C     -116.293      28.867    -430.933
  N     -116.504      28.503    -432.233
  O     -118.529      24.180    -427.554
  O     -116.755      25.916    -426.866
  H     -117.540      26.462    -435.153
  H     -117.781      23.553    -427.500
  H     -112.478      30.578    -434.285
  H     -116.972      28.614    -430.131
  H     -118.093      28.170    -433.528
  H     -115.930      26.347    -433.600
  H     -113.044      29.866    -436.437
  H     -116.401      25.520    -431.363
  H     -114.514      28.977    -436.681
  H     -119.357      25.510    -432.219
  H     -119.772      25.933    -429.816
  H     -118.980      24.366    -430.084
  P     -116.008      23.079    -432.156
  C     -115.096      22.908    -434.582
  O     -114.893      23.380    -433.268
  O     -116.536      21.613    -432.524
  O     -115.573      23.187    -430.731
  H     -116.078      20.943    -431.979
  H     -114.390      23.411    -435.248
  H     -116.117      23.108    -434.924
  H     -114.895      21.829    -434.619
  H     -119.965      28.437    -426.874
  H     -118.658      28.392    -428.033
  H     -118.333      28.122    -426.337

 3  4  5  6  7  8  9  10  11  12  23  26  30  31 0
 6-311+G(2d,p)
 ****
 33  35  36  37  38 0
 6-311+G(2d,p)
 ****
 1  2  13  14  15  16  17  18  19  20  21  22  24  25 0
 3-21G
 ****
 27  28  29  32  34  39  40  41  42  43  44  45  46  47  48  49 0
 3-21G
 ****


