%nproc=1
%NoSave
%Mem=1900MB
#P OB98/GEN NMR

erre ene a

0 1
  C      766.516    -605.603     474.289
  O      765.837    -606.238     475.348
  P      766.062    -607.804     475.622
  C      767.518    -607.585     477.737
  O      767.481    -607.973     476.361
  C      767.864    -608.796     478.614
  O      769.156    -609.332     478.246
  C      767.972    -608.470     480.087
  O      766.703    -608.331     480.670
  C      768.779    -609.665     480.599
  O      767.916    -610.807     480.820
  C      769.732    -609.927     479.424
  N      774.423    -611.043     481.075
  C      773.272    -611.751     481.126
  N      772.051    -611.361     480.702
  C      772.090    -610.101     480.193
  C      773.196    -609.269     480.110
  C      774.423    -609.790     480.554
  N      775.621    -609.117     480.465
  N      772.840    -608.047     479.577
  C      771.545    -608.161     479.332
  N      771.065    -609.386     479.640
  O      765.871    -608.694     474.436
  O      765.021    -608.162     476.777
  H      767.399    -610.609     481.640
  H      764.387    -608.838     476.455
  H      773.327    -612.732     481.551
  H      770.901    -607.339     478.939
  H      769.832    -611.001     479.212
  H      769.275    -609.453     481.537
  H      768.567    -607.549     480.234
  H      767.112    -609.576     478.435
  H      766.531    -607.198     478.013
  H      776.459    -609.652     480.680
  H      775.679    -608.333     479.823
  H      768.259    -606.783     477.880
  P      766.190    -606.912     481.215
  C      763.933    -607.241     480.054
  O      765.057    -606.392     480.194
  O      767.276    -605.927     481.510
  O      765.357    -607.272     482.526
  H      765.454    -606.531     483.174
  H      764.193    -608.083     479.408
  H      763.122    -606.665     479.590
  H      763.597    -607.608     481.015
  H      766.244    -604.569     474.260
  H      766.248    -606.068     473.364
  H      767.572    -605.690     474.439

 3  4  5  6  7  8  9  10  11  12  22  25  29  30  31  32 0
 6-311+G(2d,p)
 ****
 33  36  37 0
 6-311+G(2d,p)
 ****
 1  2  13  14  15  16  17  18  19  20  21  23  24  26 0
 3-21G
 ****
 27  28  34  35  38  39  40  41  42  43  44  45  46  47  48 0
 3-21G
 ****


