%nproc=1
%NoSave
%Mem=1900MB
#P OB98/GEN NMR

erre ene a

0 1
  C      128.521    -144.268      75.272
  O      127.963    -145.167      76.209
  H      129.094    -143.510      75.813
  H      127.737    -143.768      74.698
  H      129.196    -144.800      74.597
  P      126.941    -146.286      75.691
  C      127.135    -148.137      77.473
  O      126.380    -147.029      76.999
  C      128.396    -147.663      78.198
  O      128.025    -146.613      79.131
  C      129.104    -148.772      78.983
  O      130.514    -148.567      78.878
  C      128.636    -148.523      80.402
  O      129.537    -149.060      81.350
  C      128.489    -147.000      80.437
  N      127.567    -146.581      81.493
  C      128.117    -146.396      82.765
  O      129.322    -146.570      82.952
  N      127.286    -146.085      83.809
  C      126.007    -146.017      83.616
  N      125.236    -145.744      84.702
  C      125.378    -146.232      82.297
  C      126.208    -146.505      81.290
  O      127.449    -147.198      74.625
  O      125.679    -145.440      75.186
  H      129.591    -150.033      81.233
  H      125.777    -145.226      74.240
  H      124.306    -146.172      82.189
  H      125.836    -146.688      80.289
  H      129.460    -146.518      80.607
  H      127.660    -149.002      80.558
  H      128.844    -149.777      78.636
  H      129.071    -147.209      77.462
  H      125.709    -145.629      85.590
  H      127.417    -148.746      76.607
  H      124.229    -145.709      84.684
  H      126.521    -148.743      78.145
  P      131.381    -149.386      77.803
  C      132.795    -147.329      77.241
  O      132.823    -148.692      77.653
  O      130.684    -149.653      76.510
  O      131.716    -150.764      78.554
  H      131.800    -151.477      77.894
  H      133.796    -146.957      77.170
  H      132.250    -146.751      77.958
  H      132.318    -147.255      76.286

 6  7  8  9  10  11  12  13  14  15  16  26  30  31  32  33  35 0
 6-311+G(2d,p)
 ****
 37  38 0
 6-311+G(2d,p)
 ****
 1  2  3  4  5  17  18  19  20  21  22  23  24  25 0
 3-21G
 ****
 27  28  29  34  36  39  40  41  42  43  44  45  46 0
 3-21G
 ****


