%nproc=1
%NoSave
%Mem=1900MB
#P OB98/GEN NMR

erre ene a

0 1
  C     -211.962    -174.095    -107.281
  O     -213.360    -174.180    -107.471
  H     -211.489    -174.956    -107.759
  H     -211.720    -174.108    -106.215
  H     -211.576    -173.180    -107.740
  P     -214.258    -173.061    -106.756
  C     -215.526    -174.942    -105.489
  O     -214.821    -173.710    -105.403
  C     -215.321    -175.737    -104.202
  O     -213.906    -175.873    -103.930
  C     -215.908    -175.076    -102.963
  O     -217.310    -175.262    -102.855
  C     -215.144    -175.792    -101.865
  O     -215.753    -177.045    -101.522
  C     -213.757    -176.002    -102.502
  N     -212.768    -175.071    -101.965
  C     -211.667    -175.653    -101.344
  O     -211.512    -176.869    -101.242
  N     -210.760    -174.785    -100.804
  C     -210.870    -173.425    -100.780
  O     -210.046    -172.706    -100.228
  C     -212.062    -172.866    -101.437
  C     -212.947    -173.702    -101.988
  O     -215.546    -172.969    -107.701
  O     -213.594    -171.735    -106.585
  H     -215.516    -172.145    -108.220
  H     -215.227    -177.405    -100.780
  H     -209.953    -175.185    -100.349
  H     -212.181    -171.791    -101.435
  H     -213.839    -173.316    -102.469
  H     -213.401    -177.022    -102.316
  H     -215.109    -175.193    -100.959
  H     -215.647    -174.010    -102.942
  H     -215.744    -176.740    -104.340
  H     -215.144    -175.527    -106.330
  H     -216.587    -174.735    -105.657
  P     -218.232    -173.951    -102.764
  C     -219.310    -174.993    -100.600
  O     -218.726    -173.869    -101.242
  O     -219.516    -174.437    -103.585
  O     -217.566    -172.727    -103.298
  H     -219.624    -175.405    -103.545
  H     -219.570    -174.734     -99.595
  H     -218.610    -175.802    -100.590
  H     -220.190    -175.290    -101.131

 6  7  8  9  10  11  12  13  14  15  16  27  31  32  33  34  35 0
 6-311+G(2d,p)
 ****
 36  37 0
 6-311+G(2d,p)
 ****
 1  2  3  4  5  17  18  19  20  21  22  23  24  25 0
 3-21G
 ****
 26  28  29  30  38  39  40  41  42  43  44  45 0
 3-21G
 ****


