%nproc=1
%NoSave
%Mem=1900MB
#P OB98/GEN NMR

erre ene a

0 1
  C     -653.221    -896.605    -725.638
  O     -653.652    -895.407    -725.021
  H     -652.184    -896.785    -725.364
  H     -653.294    -896.501    -726.731
  H     -653.839    -897.440    -725.301
  P     -655.210    -895.037    -725.142
  C     -655.181    -894.728    -722.537
  O     -655.816    -895.290    -723.675
  C     -655.337    -895.667    -721.328
  O     -656.742    -895.682    -720.937
  C     -654.898    -897.106    -721.599
  O     -654.291    -897.630    -720.409
  C     -656.215    -897.840    -721.860
  O     -656.102    -899.230    -721.592
  C     -657.172    -897.067    -720.937
  N     -658.581    -897.186    -721.366
  C     -659.169    -898.430    -721.260
  O     -658.497    -899.400    -720.855
  N     -660.470    -898.600    -721.672
  C     -661.087    -897.610    -722.220
  N     -662.359    -897.830    -722.625
  C     -660.493    -896.264    -722.393
  C     -659.252    -896.126    -721.938
  O     -655.768    -896.270    -725.997
  O     -655.476    -893.690    -725.728
  H     -655.233    -899.520    -721.926
  H     -655.396    -897.125    -725.737
  H     -661.049    -895.470    -722.868
  H     -658.733    -895.172    -722.023
  H     -657.116    -897.439    -719.906
  H     -656.510    -897.710    -722.898
  H     -654.217    -897.205    -722.444
  H     -654.794    -895.229    -720.484
  H     -662.744    -898.770    -722.501
  H     -655.623    -893.756    -722.291
  H     -662.936    -897.146    -723.104
  H     -654.127    -894.587    -722.772
  P     -653.056    -898.650    -720.581
  C     -651.227    -896.837    -720.636
  O     -651.858    -897.910    -721.329
  O     -653.394    -900.000    -721.097
  O     -652.492    -898.750    -719.063
  H     -652.237    -899.680    -718.908
  H     -650.446    -896.430    -721.244
  H     -650.813    -897.200    -719.719
  H     -651.948    -896.075    -720.425

 6  7  8  9  10  11  12  13  14  15  16  26  30  31  32  33  35 0
 6-311+G(2d,p)
 ****
 37  38 0
 6-311+G(2d,p)
 ****
 1  2  3  4  5  17  18  19  20  21  22  23  24  25 0
 3-21G
 ****
 27  28  29  34  36  39  40  41  42  43  44  45  46 0
 3-21G
 ****


