%nproc=1
%NoSave
%Mem=1900MB
#P OB98/GEN NMR

erre ene a

0 1
  C       28.549     -64.031      20.966
  O       28.204     -63.928      22.345
  P       29.327     -64.306      23.423
  C       28.605     -66.757      24.009
  O       29.534     -65.896      23.379
  C       28.752     -68.201      23.493
  O       27.896     -69.065      24.291
  C       28.321     -68.425      22.046
  O       28.891     -69.653      21.578
  C       26.820     -68.592      22.195
  O       26.245     -69.215      21.051
  C       26.707     -69.383      23.519
  N       25.496     -69.057      24.301
  C       24.275     -69.589      23.889
  O       24.143     -70.322      22.909
  N       23.178     -69.230      24.625
  C       23.186     -68.437      25.731
  O       22.162     -68.073      26.302
  C       24.508     -68.015      26.207
  C       25.582     -68.330      25.480
  O       28.610     -64.038      24.826
  O       30.589     -63.518      23.276
  H       25.267     -69.168      21.167
  H       28.951     -63.217      25.229
  H       22.281     -69.554      24.298
  H       24.560     -67.441      27.123
  H       26.570     -68.006      25.799
  H       26.692     -70.468      23.333
  H       26.350     -67.614      22.302
  H       28.573     -67.611      21.365
  H       29.787     -68.534      23.643
  H       27.587     -66.397      23.840
  H       28.767     -66.745      25.093
  P       30.153     -69.562      20.589
  C       28.897     -70.092      18.406
  O       29.574     -69.104      19.164
  O       31.051     -70.751      20.574
  O       30.913     -68.244      21.096
  H       31.831     -68.252      20.777
  H       28.142     -69.602      17.782
  H       28.397     -70.821      19.056
  H       29.613     -70.609      17.763
  H       27.709     -63.750      20.366
  H       28.825     -65.040      20.742
  H       29.372     -63.380      20.755

 3  4  5  6  7  8  9  10  11  12  13  23  28  29  30  31  32 0
 6-311+G(2d,p)
 ****
 33  34 0
 6-311+G(2d,p)
 ****
 1  2  14  15  16  17  18  19  20  21  22  24  25  26  27 0
 3-21G
 ****
 35  36  37  38  39  40  41  42  43  44  45 0
 3-21G
 ****


