%nproc=1
%NoSave
%Mem=1900MB
#P OB98/GEN NMR

erre ene a

0 1
  C      -51.564      11.808       2.975
  O      -51.741      12.769       1.954
  H      -50.536      11.438       2.976
  H      -51.772      12.279       3.939
  H      -52.261      10.977       2.831
  P      -51.379      12.298       0.463
  C      -48.910      13.087       0.414
  O      -49.804      11.985       0.456
  C      -47.469      12.595       0.400
  O      -47.209      11.776       1.558
  C      -47.103      11.726      -0.798
  O      -46.855      12.503      -1.962
  C      -45.832      11.063      -0.286
  O      -44.721      11.965      -0.437
  C      -46.144      10.856       1.204
  N      -44.610       6.015       1.968
  C      -43.926       7.138       1.651
  N      -44.398       8.385       1.453
  C      -45.730       8.424       1.628
  C      -46.560       7.363       1.952
  C      -45.950       6.109       2.118
  N      -46.659       4.967       2.425
  N      -47.867       7.783       2.062
  C      -47.831       9.076       1.809
  N      -46.561       9.508       1.534
  O      -51.490      13.648      -0.393
  O      -52.249      11.223      -0.097
  H      -43.920      11.464      -0.193
  H      -51.840      13.434      -1.278
  H      -42.851       7.019       1.546
  H      -48.692       9.733       1.819
  H      -45.283      11.110       1.833
  H      -45.582      10.144      -0.821
  H      -47.864      10.960      -0.980
  H      -46.811      13.474       0.457
  H      -49.066      13.716       1.297
  H      -46.154       4.150       2.723
  H      -47.664       5.049       2.544
  H      -49.121      13.678      -0.483
  P      -47.193      11.833      -3.383
  C      -44.771      11.126      -3.985
  O      -46.075      10.704      -3.603
  O      -46.777      12.972      -4.427
  O      -48.609      11.405      -3.562
  H      -47.281      12.862      -5.257
  H      -44.137      10.271      -4.094
  H      -44.371      11.773      -3.233
  H      -44.824      11.652      -4.916

 6  7  8  9  10  11  12  13  14  15  25  28  32  33  34  35 0
 6-311+G(2d,p)
 ****
 36  39  40 0
 6-311+G(2d,p)
 ****
 1  2  3  4  5  16  17  18  19  20  21  22  23  24 0
 3-21G
 ****
 26  27  29  30  31  37  38  41  42  43  44  45  46  47  48 0
 3-21G
 ****


