%nproc=1
%NoSave
%Mem=1900MB
#P OB98/GEN NMR

erre ene a

0 1
  C      446.203     625.529    -268.123
  O      447.319     626.023    -268.844
  P      448.787     625.726    -268.239
  C      448.827     628.203    -267.483
  O      449.524     627.147    -268.120
  C      449.803     629.262    -266.931
  O      450.919     628.577    -266.304
  C      450.363     630.200    -267.999
  O      450.488     631.502    -267.414
  C      451.751     629.648    -268.266
  O      452.623     630.656    -268.784
  C      452.129     629.103    -266.887
  N      453.171     628.093    -266.947
  C      454.486     628.541    -267.147
  O      454.712     629.736    -267.337
  N      455.508     627.616    -267.179
  C      455.221     626.351    -267.142
  N      456.268     625.473    -267.169
  C      453.837     625.832    -267.050
  C      452.882     626.748    -266.946
  O      449.529     625.018    -269.466
  O      448.782     624.882    -267.009
  H      452.715     631.371    -268.115
  H      450.183     624.361    -269.151
  H      453.659     624.762    -267.053
  H      451.828     626.458    -266.857
  H      452.481     629.927    -266.226
  H      451.695     628.833    -268.993
  H      449.732     630.270    -268.896
  H      449.287     629.825    -266.152
  H      457.201     625.854    -267.248
  H      448.260     627.809    -266.636
  H      456.138     624.470    -267.140
  H      448.122     628.667    -268.184
  P      449.332     632.574    -267.713
  C      451.117     633.824    -269.073
  O      450.104     633.927    -268.094
  O      448.813     632.909    -266.230
  O      448.201     632.167    -268.596
  H      448.044     633.514    -266.278
  H      451.460     634.830    -269.339
  H      450.733     633.334    -269.979
  H      451.970     633.254    -268.678
  H      445.302     625.796    -268.634
  H      446.196     625.954    -267.141
  H      446.269     624.464    -268.050

 3  4  5  6  7  8  9  10  11  12  13  21  23  27  28  29  30  32 0
 6-311+G(2d,p)
 ****
 34  35 0
 6-311+G(2d,p)
 ****
 1  2  14  15  16  17  18  19  20  22  24  25  26 0
 3-21G
 ****
 31  33  36  37  38  39  40  41  42  43  44  45  46 0
 3-21G
 ****


