%nproc=1
%NoSave
%Mem=1900MB
#P OB98/GEN NMR

erre ene a

0 1
  C       38.260      47.438    -163.078
  O       37.222      47.206    -164.012
  H       39.043      48.029    -163.560
  H       38.687      46.484    -162.754
  H       37.881      47.989    -162.213
  P       35.877      46.556    -163.436
  C       35.111      44.140    -162.762
  O       36.149      44.982    -163.245
  C       35.650      42.733    -162.515
  O       36.737      42.761    -161.568
  C       34.647      41.781    -161.882
  O       33.642      41.371    -162.783
  C       35.568      40.651    -161.443
  O       35.823      39.730    -162.511
  C       36.860      41.412    -161.055
  N       37.092      41.384    -159.623
  C       37.562      40.164    -159.115
  O       37.769      39.218    -159.876
  N       37.747      40.043    -157.762
  C       37.461      41.038    -156.981
  N       37.636      40.840    -155.645
  C       36.962      42.338    -157.474
  C       36.801      42.441    -158.794
  O       34.899      46.608    -164.700
  O       35.334      47.222    -162.215
  H       36.408      39.036    -162.142
  H       35.295      46.260    -165.516
  H       36.751      43.141    -156.780
  H       36.439      43.360    -159.241
  H       37.732      40.965    -161.553
  H       35.134      40.073    -160.621
  H       34.211      42.236    -160.980
  H       36.026      42.338    -163.469
  H       37.927      39.917    -155.346
  H       34.279      44.107    -163.473
  H       37.373      41.512    -154.940
  H       34.735      44.575    -161.830
  P       32.282      40.700    -162.267
  C       31.670      38.224    -161.891
  O       32.664      39.231    -161.734
  O       31.149      40.726    -163.235
  O       31.989      41.483    -160.899
  H       32.688      41.406    -160.225
  H       32.037      37.297    -161.502
  H       31.440      38.109    -162.930
  H       30.786      38.509    -161.359

 6  7  8  9  10  11  12  13  14  15  16  26  30  31  32  33  35 0
 6-311+G(2d,p)
 ****
 37  38 0
 6-311+G(2d,p)
 ****
 1  2  3  4  5  17  18  19  20  21  22  23  24  25 0
 3-21G
 ****
 27  28  29  34  36  39  40  41  42  43  44  45  46 0
 3-21G
 ****


