%nproc=1
%NoSave
%Mem=1900MB
#P OB98/GEN NMR

erre ene a

0 1
  C     -242.263    -605.683     215.734
  O     -242.225    -606.733     216.679
  H     -242.499    -606.107     214.752
  H     -241.289    -605.185     215.678
  H     -243.037    -604.961     216.007
  P     -241.852    -606.325     218.188
  C     -240.354    -608.353     218.712
  O     -241.609    -607.730     218.934
  C     -240.400    -609.822     219.143
  O     -240.754    -609.888     220.544
  C     -241.433    -610.649     218.366
  O     -240.911    -611.956     218.125
  C     -242.607    -610.746     219.326
  O     -243.418    -611.891     219.088
  C     -241.898    -610.744     220.683
  N     -245.754    -612.030     223.769
  C     -245.006    -612.751     222.907
  N     -243.989    -612.335     222.139
  C     -243.729    -611.023     222.346
  C     -244.410    -610.156     223.189
  C     -245.476    -610.715     223.914
  N     -246.265    -609.976     224.770
  N     -243.883    -608.886     223.090
  C     -242.894    -608.984     222.226
  N     -242.772    -610.255     221.741
  O     -242.808    -605.400     218.864
  O     -240.361    -605.764     218.020
  H     -244.112    -611.924     219.783
  H     -239.831    -606.339     217.436
  H     -245.269    -613.811     222.831
  H     -242.242    -608.169     221.915
  H     -241.555    -611.746     220.977
  H     -243.240    -609.855     219.224
  H     -241.715    -610.184     217.422
  H     -239.396    -610.252     219.038
  H     -239.568    -607.835     219.282
  H     -247.004    -610.446     225.265
  H     -246.066    -608.988     224.905
  H     -240.116    -608.278     217.646
  P     -240.164    -612.224     216.739
  C     -240.781    -614.747     216.699
  O     -239.727    -613.776     216.683
  O     -239.103    -611.255     216.353
  O     -241.381    -612.191     215.676
  H     -241.064    -611.773     214.858
  H     -240.361    -615.730     216.658
  H     -241.418    -614.596     215.853
  H     -241.351    -614.640     217.598

 6  7  8  9  10  11  12  13  14  15  25  28  32  33  34  35 0
 6-311+G(2d,p)
 ****
 36  39  40 0
 6-311+G(2d,p)
 ****
 1  2  3  4  5  16  17  18  19  20  21  22  23  24 0
 3-21G
 ****
 26  27  29  30  31  37  38  41  42  43  44  45  46  47 0
 3-21G
 ****
 48 0
 3-21G
 ****


