%nproc=1
%NoSave
%Mem=1900MB
#P OB98/GEN NMR

erre ene a

0 1
  C       10.125    -373.286    -561.133
  O        8.859    -373.701    -560.664
  P        7.861    -374.526    -561.609
  C        5.922    -372.844    -561.289
  O        6.383    -374.177    -561.078
  C        4.582    -372.613    -560.590
  O        3.511    -373.197    -561.345
  C        4.497    -373.226    -559.198
  O        5.198    -372.442    -558.258
  C        2.988    -373.271    -558.991
  O        2.488    -372.002    -558.540
  C        2.474    -373.586    -560.418
  N        2.098    -374.988    -560.572
  C        0.938    -375.389    -559.896
  O        0.321    -374.590    -559.197
  N        0.537    -376.702    -560.001
  C        1.248    -377.533    -560.690
  N        0.805    -378.818    -560.750
  C        2.493    -377.158    -561.401
  C        2.857    -375.881    -561.293
  O        8.167    -375.978    -561.756
  O        7.932    -373.720    -562.998
  H        2.805    -371.898    -557.617
  H        8.783    -373.893    -563.471
  H        3.060    -377.892    -561.949
  H        3.765    -375.517    -561.776
  H        1.596    -372.965    -560.656
  H        2.699    -374.020    -558.245
  H        4.894    -374.254    -559.220
  H        4.416    -371.533    -560.536
  H       -0.037    -379.047    -560.223
  H        5.800    -372.698    -562.366
  H        1.303    -379.560    -561.229
  H        6.681    -372.142    -560.932
  P        6.576    -372.982    -557.631
  C        5.980    -372.148    -555.278
  O        6.909    -372.088    -556.348
  O        7.693    -373.152    -558.605
  O        6.163    -374.390    -556.987
  H        6.842    -375.048    -557.216
  H        6.472    -371.778    -554.372
  H        5.641    -373.169    -555.115
  H        5.123    -371.502    -555.506
  H       10.636    -372.754    -560.358
  H        9.999    -372.647    -561.982
  H       10.700    -374.144    -561.415

 3  4  5  6  7  8  9  10  11  12  13  23  27  28  29  30  32 0
 6-311+G(2d,p)
 ****
 34  35 0
 6-311+G(2d,p)
 ****
 1  2  14  15  16  17  18  19  20  21  22  24  25  26 0
 3-21G
 ****
 31  33  36  37  38  39  40  41  42  43  44  45  46 0
 3-21G
 ****


