%nproc=1
%NoSave
%Mem=1900MB
#P OB98/GEN NMR

erre ene a

0 1
  C      211.495    -267.073      47.544
  O      211.336    -265.724      47.159
  H      211.554    -267.712      46.660
  H      212.423    -267.171      48.112
  H      210.660    -267.387      48.176
  P      210.044    -265.370      46.275
  C      208.901    -264.303      48.344
  O      208.801    -265.250      47.289
  C      208.060    -263.072      48.019
  O      206.666    -263.470      47.974
  C      208.194    -261.919      49.031
  O      208.633    -260.729      48.368
  C      206.777    -261.693      49.536
  O      206.450    -260.314      49.693
  C      205.911    -262.361      48.475
  N      201.101    -260.965      49.418
  C      202.013    -260.493      48.539
  N      203.241    -260.978      48.261
  C      203.490    -262.083      48.984
  C      202.652    -262.695      49.900
  C      201.409    -262.078      50.124
  N      200.504    -262.526      51.061
  N      203.259    -263.809      50.453
  C      204.459    -263.841      49.910
  N      204.650    -262.807      49.031
  O      209.754    -266.735      45.488
  O      210.211    -264.218      45.342
  H      207.197    -259.902      50.166
  H      209.614    -266.543      44.541
  H      201.720    -259.604      47.989
  H      205.238    -264.555      50.146
  H      205.698    -261.688      47.635
  H      206.665    -262.188      50.509
  H      208.872    -262.157      49.855
  H      208.329    -262.726      47.014
  H      209.947    -263.997      48.463
  H      199.693    -261.957      51.238
  H      200.773    -263.287      51.667
  H      208.566    -264.770      49.275
  P      209.640    -259.779      49.189
  C      211.742    -259.782      47.655
  O      211.133    -260.257      48.848
  O      209.434    -260.263      50.701
  O      209.367    -258.322      49.024
  H      209.641    -259.534      51.316
  H      212.728    -260.188      47.572
  H      211.797    -258.714      47.684
  H      211.159    -260.086      46.811

 6  7  8  9  10  11  12  13  14  15  25  28  32  33  34  35 0
 6-311+G(2d,p)
 ****
 36  39  40 0
 6-311+G(2d,p)
 ****
 1  2  3  4  5  16  17  18  19  20  21  22  23  24 0
 3-21G
 ****
 26  27  29  30  31  37  38  41  42  43  44  45  46  47  48 0
 3-21G
 ****


