%nproc=1
%NoSave
%Mem=1900MB
#P OB98/GEN NMR

erre ene a

0 1
  C     -102.051    -102.052    -250.415
  O     -102.231    -102.893    -251.535
  H     -101.154    -102.374    -249.877
  H     -102.908    -102.131    -249.742
  H     -101.916    -101.013    -250.724
  P     -103.380    -102.533    -252.591
  C     -101.945    -101.195    -254.261
  O     -102.969    -101.144    -253.275
  C     -102.470    -100.643    -255.584
  O     -103.449    -101.548    -256.144
  C     -103.185     -99.304    -255.453
  O     -102.269     -98.242    -255.276
  C     -103.968     -99.271    -256.753
  O     -103.149     -98.829    -257.842
  C     -104.360    -100.754    -256.934
  N     -105.749    -101.006    -256.547
  C     -106.726    -100.440    -257.361
  O     -106.473     -99.771    -258.361
  N     -108.021    -100.619    -256.950
  C     -108.407    -101.168    -255.764
  O     -109.550    -101.085    -255.325
  C     -107.340    -101.803    -254.975
  C     -106.077    -101.682    -255.390
  O     -104.778    -102.598    -252.071
  O     -103.148    -103.593    -253.772
  H     -103.807    -104.308    -253.694
  H     -102.473     -99.526    -257.969
  H     -108.732    -100.174    -257.514
  H     -107.617    -102.313    -254.060
  H     -105.268    -102.113    -254.807
  H     -104.228    -101.062    -257.977
  H     -104.825     -98.598    -256.687
  H     -103.890     -99.343    -254.614
  H     -101.629    -100.571    -256.286
  H     -101.640    -102.239    -254.397
  H     -101.086    -100.614    -253.911
  P     -102.737     -96.883    -254.567
  C     -102.585     -97.798    -252.170
  O     -103.438     -97.257    -253.173
  O     -103.519     -95.950    -255.430
  O     -101.364     -96.200    -254.097
  H     -101.356     -95.270    -254.399
  H     -103.157     -98.008    -251.291
  H     -101.817     -97.091    -251.936
  H     -102.140     -98.702    -252.530

 6  7  8  9  10  11  12  13  14  15  16  27  31  32  33  34  35 0
 6-311+G(2d,p)
 ****
 36  37 0
 6-311+G(2d,p)
 ****
 1  2  3  4  5  17  18  19  20  21  22  23  24  25 0
 3-21G
 ****
 26  28  29  30  38  39  40  41  42  43  44  45 0
 3-21G
 ****


