%nproc=1
%NoSave
%Mem=1900MB
#P OB98/GEN NMR

erre ene a

0 1
  C     -263.921     148.846     113.981
  O     -262.630     148.673     113.397
  P     -262.536     148.672     111.798
  C     -262.158     146.081     111.976
  O     -262.760     147.164     111.291
  C     -262.099     144.827     111.080
  O     -263.437     144.273     110.982
  C     -261.649     145.071     109.643
  O     -261.237     143.828     109.073
  C     -262.938     145.524     108.991
  O     -262.874     145.420     107.570
  C     -263.992     144.629     109.683
  N     -265.306     145.287     109.858
  C     -266.233     145.210     108.821
  O     -266.021     144.622     107.759
  N     -267.415     145.869     109.017
  C     -267.777     146.547     110.140
  O     -268.814     147.195     110.229
  C     -266.825     146.484     111.255
  C     -265.647     145.881     111.064
  O     -260.986     148.957     111.512
  O     -263.422     149.679     111.140
  H     -262.025     145.837     107.301
  H     -260.865     149.877     111.207
  H     -268.067     145.872     108.247
  H     -267.103     146.959     112.191
  H     -264.923     145.841     111.873
  H     -264.161     143.708     109.113
  H     -263.123     146.576     109.230
  H     -260.853     145.813     109.534
  H     -261.464     144.072     111.562
  H     -262.711     145.863     112.895
  H     -261.140     146.356     112.282
  P     -259.663     143.554     108.924
  C     -259.473     144.847     106.709
  O     -259.071     144.773     108.064
  O     -259.272     142.188     108.462
  O     -259.108     143.862     110.395
  H     -258.228     143.448     110.514
  H     -259.465     145.896     106.396
  H     -260.479     144.439     106.567
  H     -258.762     144.284     106.092
  H     -263.836     148.826     115.047
  H     -264.566     148.055     113.660
  H     -264.329     149.786     113.673

 3  4  5  6  7  8  9  10  11  12  13  23  28  29  30  31  32 0
 6-311+G(2d,p)
 ****
 33  34 0
 6-311+G(2d,p)
 ****
 1  2  14  15  16  17  18  19  20  21  22  24  25  26  27 0
 3-21G
 ****
 35  36  37  38  39  40  41  42  43  44  45 0
 3-21G
 ****


