%nproc=1
%NoSave
%Mem=1900MB
#P OB98/GEN NMR

erre ene a

0 1
  C      -66.295     -21.227     172.896
  O      -65.423     -20.110     172.718
  P      -65.000     -19.321     174.050
  C      -62.907     -18.030     174.879
  O      -63.589     -18.607     173.776
  C      -61.447     -17.742     174.522
  O      -60.696     -18.944     174.271
  C      -61.289     -16.883     173.274
  O      -61.513     -15.520     173.591
  C      -59.849     -17.178     172.876
  O      -58.923     -16.351     173.609
  C      -59.683     -18.653     173.275
  N      -57.634     -20.234     168.917
  C      -57.329     -19.129     169.689
  N      -56.318     -18.350     169.252
  N      -57.958     -18.820     170.793
  C      -58.945     -19.690     171.111
  C      -59.321     -20.832     170.442
  C      -58.620     -21.162     169.220
  O      -58.837     -22.138     168.514
  N      -60.324     -21.493     171.105
  C      -60.637     -20.684     172.100
  N      -59.787     -19.608     172.187
  O      -64.647     -20.496     175.077
  O      -66.073     -18.431     174.580
  H      -59.055     -15.421     173.353
  H      -65.325     -20.538     175.777
  H      -57.123     -20.419     168.071
  H      -61.445     -20.842     172.797
  H      -58.709     -18.834     173.746
  H      -59.670     -16.974     171.817
  H      -55.790     -18.529     168.412
  H      -61.974     -17.228     172.490
  H      -56.074     -17.539     169.807
  H      -60.993     -17.233     175.382
  H      -62.950     -18.701     175.739
  H      -63.426     -17.111     175.171
  P      -62.979     -14.925     173.342
  C      -64.230     -12.753     174.015
  O      -62.991     -13.427     173.905
  O      -63.883     -15.738     174.386
  O      -63.488     -15.091     171.949
  H      -64.709     -16.020     173.952
  H      -64.168     -12.038     174.839
  H      -65.053     -13.445     174.206
  H      -64.424     -12.208     173.087
  H      -66.506     -21.670     171.945
  H      -67.208     -20.898     173.347
  H      -65.824     -21.949     173.530

 3  4  5  6  7  8  9  10  11  12  23  26  30  31 0
 6-311+G(2d,p)
 ****
 33  35  36  37  38 0
 6-311+G(2d,p)
 ****
 1  2  13  14  15  16  17  18  19  20  21  22  24  25 0
 3-21G
 ****
 27  28  29  32  34  39  40  41  42  43  44  45  46  47  48  49 0
 3-21G
 ****


