%nproc=1
%NoSave
%Mem=1900MB
#P OB98/GEN NMR

erre ene a

0 1
  C       -3.866     217.021     -20.896
  O       -3.991     216.846     -19.501
  P       -4.549     215.508     -18.831
  C       -7.033     216.260     -18.962
  O       -6.061     215.289     -19.332
  C       -8.368     215.637     -18.530
  O       -8.998     215.016     -19.669
  C       -8.124     214.522     -17.508
  O       -7.956     214.834     -16.141
  C       -9.192     213.476     -17.802
  O      -10.316     213.579     -16.926
  C       -9.605     213.785     -19.243
  N      -10.773     209.210     -21.087
  C      -11.546     210.064     -20.325
  N      -12.697     209.546     -19.842
  N      -11.206     211.296     -20.047
  C       -9.984     211.637     -20.520
  C       -9.135     210.884     -21.297
  C       -9.541     209.540     -21.631
  O       -8.847     208.723     -22.233
  N       -7.948     211.529     -21.529
  C       -8.059     212.658     -20.858
  N       -9.261     212.750     -20.197
  O       -4.238     215.300     -17.384
  O       -3.749     214.380     -19.663
  H      -10.536     214.523     -16.832
  H       -3.572     213.638     -19.054
  H      -11.051     208.244     -21.203
  H       -7.292     213.420     -20.790
  H      -10.691     213.933     -19.310
  H       -8.790     212.465     -17.670
  H      -12.917     208.563     -19.914
  H       -7.177     214.042     -17.788
  H      -13.201     210.082     -19.145
  H       -9.067     216.405     -18.185
  H       -7.176     216.923     -19.820
  H       -6.643     216.872     -18.145
  P       -6.625     214.636     -15.278
  C       -7.077     212.120     -15.183
  O       -6.123     213.127     -15.463
  O       -7.132     214.656     -13.758
  O       -5.575     215.677     -15.489
  H       -6.392     214.894     -13.168
  H       -6.560     211.167     -15.044
  H       -7.771     212.029     -16.025
  H       -7.639     212.355     -14.274
  H       -3.471     217.995     -21.099
  H       -4.827     216.923     -21.355
  H       -3.205     216.278     -21.291

 3  4  5  6  7  8  9  10  11  12  23  26  30  31 0
 6-311+G(2d,p)
 ****
 33  35  36  37  38 0
 6-311+G(2d,p)
 ****
 1  2  13  14  15  16  17  18  19  20  21  22  24  25 0
 3-21G
 ****
 27  28  29  32  34  39  40  41  42  43  44  45  46  47  48  49 0
 3-21G
 ****


