%nproc=1
%NoSave
%Mem=1900MB
#P OB98/GEN NMR

erre ene a

0 1
  C       10.900     171.532      20.367
  O       10.752     170.744      19.185
  P       11.475     169.318      19.098
  C       10.409     167.850      17.266
  O       11.419     168.796      17.582
  C        9.087     168.550      16.915
  O        9.320     169.552      15.889
  C        8.016     167.581      16.394
  O        6.766     167.713      17.069
  C        7.995     167.846      14.899
  O        6.768     167.478      14.288
  C        8.393     169.324      14.812
  N        8.967     169.662      13.507
  C        8.105     170.220      12.572
  O        6.899     170.364      12.770
  N        8.661     170.555      11.367
  C        9.949     170.317      10.988
  O       10.387     170.593       9.879
  C       10.799     169.665      11.996
  C       10.276     169.373      13.189
  O       11.064     168.318      20.126
  O       13.028     169.696      19.269
  H        6.032     167.822      14.840
  H       13.448     169.001      19.814
  H        8.052     170.978      10.684
  H       11.820     169.440      11.723
  H       10.875     168.881      13.944
  H        7.525     169.974      14.963
  H        8.783     167.243      14.431
  H        8.302     166.539      16.572
  H        8.737     169.056      17.820
  H       10.245     167.194      18.122
  H       10.756     167.206      16.451
  P        6.170     166.638      18.092
  C        4.786     167.911      19.874
  O        4.780     167.196      18.656
  O        7.114     166.137      19.131
  O        5.721     165.436      17.130
  H        5.940     164.586      17.555
  H        3.778     167.894      20.294
  H        5.070     168.950      19.685
  H        5.477     167.466      20.594
  H       10.356     172.447      20.256
  H       11.936     171.750      20.523
  H       10.519     170.990      21.207

 3  4  5  6  7  8  9  10  11  12  13  23  28  29  30  31  32 0
 6-311+G(2d,p)
 ****
 33  34 0
 6-311+G(2d,p)
 ****
 1  2  14  15  16  17  18  19  20  21  22  24  25  26  27 0
 3-21G
 ****
 35  36  37  38  39  40  41  42  43  44  45 0
 3-21G
 ****


