%nproc=1
%NoSave
%Mem=1900MB
#P OB98/GEN NMR

erre ene a

0 1
  C      -52.201     -26.961     226.084
  O      -52.395     -27.798     227.207
  H      -51.274     -26.400     226.223
  H      -53.028     -26.253     225.994
  H      -52.117     -27.553     225.168
  P      -53.607     -28.846     227.189
  C      -55.373     -27.151     228.006
  O      -54.949     -28.005     226.949
  C      -56.856     -26.825     227.846
  O      -57.085     -26.150     226.589
  C      -57.757     -28.053     227.825
  O      -57.940     -28.577     229.126
  C      -59.011     -27.477     227.188
  O      -59.803     -26.772     228.158
  C      -58.416     -26.504     226.148
  N      -58.392     -27.061     224.796
  C      -58.955     -26.280     223.792
  O      -59.483     -25.189     224.002
  N      -58.919     -26.811     222.530
  C      -58.489     -28.063     222.202
  O      -58.561     -28.527     221.068
  C      -57.927     -28.856     223.304
  C      -57.903     -28.326     224.532
  O      -53.655     -29.799     228.336
  O      -53.418     -29.617     225.797
  H      -60.644     -26.547     227.713
  H      -53.054     -30.507     225.965
  H      -59.333     -26.266     221.793
  H      -57.563     -29.849     223.082
  H      -57.499     -28.896     225.359
  H      -58.995     -25.572     226.123
  H      -59.648     -28.248     226.756
  H      -57.340     -28.814     227.156
  H      -57.148     -26.141     228.655
  H      -54.790     -26.226     227.966
  H      -55.185     -27.650     228.963
  P      -57.643     -30.122     229.413
  C      -60.083     -30.599     230.063
  O      -59.009     -30.932     229.191
  O      -56.939     -30.413     230.697
  O      -56.750     -30.578     228.164
  H      -55.880     -30.885     228.484
  H      -60.936     -31.199     229.823
  H      -60.330     -29.564     229.946
  H      -59.791     -30.784     231.076

 6  7  8  9  10  11  12  13  14  15  16  26  31  32  33  34  35 0
 6-311+G(2d,p)
 ****
 36  37 0
 6-311+G(2d,p)
 ****
 1  2  3  4  5  17  18  19  20  21  22  23  24  25 0
 3-21G
 ****
 27  28  29  30  38  39  40  41  42  43  44  45 0
 3-21G
 ****


