%nproc=1
%NoSave
%Mem=1900MB
#P OB98/GEN NMR

erre ene a

0 1
  C     -253.692    -661.320    -633.221
  O     -255.017    -661.798    -633.312
  P     -256.201    -661.119    -632.472
  C     -257.542    -659.836    -634.241
  O     -256.591    -659.738    -633.190
  C     -258.758    -658.955    -633.968
  O     -259.324    -659.302    -632.678
  C     -258.461    -657.451    -633.964
  O     -259.578    -656.791    -634.570
  C     -258.388    -657.121    -632.484
  O     -258.616    -655.747    -632.225
  C     -259.450    -658.080    -631.928
  N     -259.296    -658.313    -630.502
  C     -260.180    -657.650    -629.653
  O     -260.957    -656.804    -630.105
  N     -260.150    -657.944    -628.313
  C     -259.195    -658.688    -627.844
  N     -259.243    -659.012    -626.525
  C     -258.097    -659.205    -628.681
  C     -258.229    -659.018    -629.994
  O     -255.953    -661.008    -631.007
  O     -257.472    -662.048    -632.768
  H     -257.868    -662.328    -631.917
  H     -257.916    -655.217    -632.662
  H     -257.260    -659.714    -628.230
  H     -257.488    -659.386    -630.694
  H     -260.458    -657.684    -632.114
  H     -257.399    -657.383    -632.100
  H     -257.550    -657.197    -634.513
  H     -259.521    -659.185    -634.727
  H     -260.033    -658.676    -625.992
  H     -257.861    -660.876    -634.317
  H     -258.748    -659.821    -626.148
  H     -257.071    -659.559    -635.194
  P     -259.289    -655.614    -635.624
  C     -259.126    -657.025    -637.794
  O     -258.453    -656.238    -636.840
  O     -258.167    -654.760    -634.850
  O     -260.443    -654.734    -635.973
  H     -258.194    -653.839    -635.174
  H     -258.395    -657.416    -638.505
  H     -259.855    -656.426    -638.342
  H     -259.624    -657.867    -637.311
  H     -253.058    -661.904    -633.855
  H     -253.354    -661.397    -632.209
  H     -253.660    -660.296    -633.531

 3  4  5  6  7  8  9  10  11  12  13  24  27  28  29  30  32 0
 6-311+G(2d,p)
 ****
 34  35 0
 6-311+G(2d,p)
 ****
 1  2  14  15  16  17  18  19  20  21  22  23  25  26 0
 3-21G
 ****
 31  33  36  37  38  39  40  41  42  43  44  45  46 0
 3-21G
 ****


