%nproc=1
%NoSave
%Mem=1900MB
#P OB98/GEN NMR

erre ene a

0 1
  C      -60.516     100.007     -74.420
  O      -60.602     100.221     -73.019
  P      -61.867      99.606     -72.248
  C      -60.561      97.377     -72.120
  O      -61.790      98.014     -72.443
  C      -60.798      95.950     -71.642
  O      -59.520      95.356     -71.283
  C      -61.718      95.839     -70.416
  O      -62.635      94.753     -70.610
  C      -60.771      95.446     -69.296
  O      -61.439      94.746     -68.252
  C      -59.754      94.611     -70.072
  N      -57.416      91.554     -66.803
  C      -58.597      91.370     -67.494
  N      -59.277      90.232     -67.230
  N      -59.072      92.222     -68.362
  C      -58.272      93.300     -68.549
  C      -57.077      93.590     -67.932
  C      -56.594      92.665     -66.929
  O      -55.602      92.816     -66.219
  N      -56.550      94.768     -68.396
  C      -57.423      95.192     -69.288
  N      -58.510      94.359     -69.381
  O      -63.097     100.044     -73.173
  O      -62.050     100.078     -70.847
  H      -60.792      94.620     -67.532
  H      -63.746     100.544     -72.644
  H      -57.105      90.873     -66.133
  H      -57.329      96.105     -69.862
  H      -60.185      93.639     -70.347
  H      -60.316      96.349     -68.876
  H      -58.951      89.517     -66.601
  H      -62.273      96.753     -70.187
  H      -60.135      90.068     -67.743
  H      -61.197      95.363     -72.479
  H      -60.061      97.943     -71.327
  H      -59.920      97.375     -73.008
  P      -64.097      94.945     -69.974
  C      -65.047      96.067     -72.123
  O      -64.748      96.186     -70.746
  O      -63.792      95.520     -68.513
  O      -64.911      93.695     -69.939
  H      -64.530      95.320     -67.908
  H      -64.938      95.040     -72.482
  H      -64.373      96.712     -72.691
  H      -66.077      96.392     -72.292
  H      -59.628     100.470     -74.798
  H      -61.372     100.434     -74.899
  H      -60.483      98.956     -74.619

 3  4  5  6  7  8  9  10  11  12  23  26  30  31  33  0
 6-311+G(2d,p)
 ****
 35  36  37  38 0
 6-311+G(2d,p)
 ****
 1  2  13  14  15  16  17  18  19  20  21  22  24  25  27  28  29 0
 3-21G
 ****
 32  34  39  40  41  42  43  44  45  46  47  48  49 0
 3-21G
 ****


