%nproc=1
%NoSave
%Mem=1900MB
#P OB98/GEN NMR

erre ene a

0 1
  C       38.684     -62.064    -363.538
  O       39.849     -62.183    -364.359
  P       40.534     -60.827    -364.868
  C       42.469     -60.611    -363.137
  O       41.227     -60.104    -363.619
  C       42.878     -59.874    -361.861
  O       41.817     -59.884    -360.888
  C       44.067     -60.508    -361.161
  O       45.274     -60.165    -361.814
  C       43.947     -59.938    -359.752
  O       44.664     -58.699    -359.617
  C       42.426     -59.710    -359.597
  N       41.824     -60.591    -358.605
  C       41.914     -60.164    -357.278
  O       42.496     -59.114    -356.999
  N       41.364     -60.955    -356.299
  C       40.799     -62.077    -356.618
  N       40.279     -62.819    -355.604
  C       40.708     -62.573    -358.007
  C       41.240     -61.787    -358.943
  O       39.285     -59.883    -365.196
  O       41.416     -61.005    -366.063
  H       45.578     -58.892    -359.915
  H       39.493     -59.291    -365.941
  H       40.238     -63.520    -358.222
  H       41.219     -62.074    -359.989
  H       42.224     -58.676    -359.293
  H       44.359     -60.625    -359.007
  H       43.946     -61.599    -361.129
  H       43.110     -58.831    -362.121
  H       40.362     -62.449    -354.665
  H       43.241     -60.498    -363.898
  H       39.825     -63.710    -355.739
  H       42.363     -61.686    -362.953
  P       45.988     -61.293    -362.699
  C       45.639     -59.759    -364.730
  O       45.450     -61.053    -364.191
  O       45.189     -62.613    -362.269
  O       47.463     -61.453    -362.541
  H       45.599     -63.399    -362.673
  H       45.425     -59.790    -365.800
  H       46.671     -59.429    -364.586
  H       44.951     -59.055    -364.253
  H       38.334     -63.040    -363.272
  H       37.919     -61.545    -364.077
  H       38.927     -61.519    -362.650

 3  4  5  6  7  8  9  10  11  12  13  21  23  27  28  29  30  32 0
 6-311+G(2d,p)
 ****
 34  35 0
 6-311+G(2d,p)
 ****
 1  2  14  15  16  17  18  19  20  22  24  25  26 0
 3-21G
 ****
 31  33  36  37  38  39  40  41  42  43  44  45  46 0
 3-21G
 ****


