%nproc=1
%NoSave
%Mem=1900MB
#P OB98/GEN NMR

erre ene a

0 1
  C       -3.393     389.252     -90.384
  O       -2.353     388.504     -90.973
  H       -2.975     390.187     -90.002
  H       -3.828     388.703     -89.545
  H       -4.165     389.486     -91.121
  P       -2.672     387.055     -91.584
  C       -1.825     387.898     -93.855
  O       -2.911     387.302     -93.158
  C       -2.263     388.389     -95.237
  O       -2.765     387.268     -96.014
  C       -3.371     389.452     -95.192
  O       -3.038     390.535     -96.062
  C       -4.590     388.719     -95.732
  O       -5.563     389.597     -96.294
  C       -3.930     387.743     -96.711
  N       -4.828     386.664     -97.098
  C       -5.701     386.935     -98.155
  O       -5.679     388.036     -98.709
  N       -6.610     385.980     -98.522
  C       -6.678     384.867     -97.862
  N       -7.624     383.973     -98.259
  C       -5.794     384.550     -96.720
  C       -4.900     385.481     -96.399
  O       -3.763     386.313     -90.889
  O       -1.272     386.280     -91.558
  H       -6.346     389.065     -96.558
  H       -1.444     385.311     -91.576
  H       -5.894     383.609     -96.199
  H       -4.207     385.340     -95.574
  H       -3.597     388.264     -97.620
  H       -5.069     388.163     -94.917
  H       -3.550     389.843     -94.191
  H       -1.378     388.760     -95.768
  H       -8.211     384.234     -99.042
  H       -1.022     387.160     -93.950
  H       -7.785     383.086     -97.806
  H       -1.466     388.752     -93.271
  P       -3.535     391.991     -95.609
  C       -1.479     393.283     -96.524
  O       -2.238     392.910     -95.384
  O       -4.097     391.744     -94.130
  O       -4.580     392.569     -96.503
  H       -5.068     391.832     -94.125
  H       -0.652     393.890     -96.219
  H       -2.098     393.837     -97.199
  H       -1.115     392.404     -97.013

 6  7  8  9  10  11  12  13  14  15  16  26  30  31  32  33  35 0
 6-311+G(2d,p)
 ****
 37  38 0
 6-311+G(2d,p)
 ****
 1  2  3  4  5  17  18  19  20  21  22  23  24  25 0
 3-21G
 ****
 27  28  29  34  36  39  40  41  42  43  44  45  46 0
 3-21G
 ****


