%nproc=1
%NoSave
%Mem=1900MB
#P OB98/GEN NMR

erre ene a

0 1
  C       71.706     -29.321     -52.020
  O       71.926     -30.515     -52.751
  P       73.435     -31.061     -52.839
  C       74.025     -29.894     -55.083
  O       74.261     -29.975     -53.683
  C       74.836     -28.764     -55.720
  O       74.595     -27.541     -54.984
  C       76.344     -29.015     -55.742
  O       76.858     -28.481     -56.963
  C       76.859     -28.180     -54.585
  O       78.230     -27.829     -54.756
  C       75.878     -26.998     -54.609
  N       75.812     -26.309     -53.325
  C       76.320     -25.008     -53.279
  O       76.864     -24.524     -54.272
  N       76.246     -24.308     -52.101
  C       75.803     -24.896     -51.033
  N       75.747     -24.161     -49.891
  C       75.373     -26.308     -51.010
  C       75.384     -26.940     -52.182
  O       73.309     -32.295     -53.848
  O       74.029     -31.459     -51.528
  H       78.766     -28.650     -54.685
  H       73.955     -32.992     -53.628
  H       75.048     -26.761     -50.085
  H       75.063     -27.970     -52.265
  H       76.168     -26.272     -55.380
  H       76.760     -28.742     -53.648
  H       76.600     -30.075     -55.666
  H       74.462     -28.608     -56.739
  H       76.062     -23.201     -49.929
  H       72.964     -29.690     -55.253
  H       75.418     -24.536     -49.011
  H       74.266     -30.854     -55.548
  P       78.009     -29.310     -57.712
  C       79.921     -28.078     -56.523
  O       79.248     -29.309     -56.695
  O       78.499     -28.250     -58.813
  O       77.648     -30.613     -58.340
  H       79.168     -28.662     -59.389
  H       80.646     -28.186     -55.712
  H       79.214     -27.288     -56.262
  H       80.458     -27.816     -57.440
  H       70.665     -29.075     -52.044
  H       72.271     -28.525     -52.459
  H       72.016     -29.461     -51.006

 3  4  5  6  7  8  9  10  11  12  13  21  23  27  28  29  30  32 0
 6-311+G(2d,p)
 ****
 34  35 0
 6-311+G(2d,p)
 ****
 1  2  14  15  16  17  18  19  20  22  24  25  26 0
 3-21G
 ****
 31  33  36  37  38  39  40  41  42  43  44  45  46 0
 3-21G
 ****


