%nproc=1
%NoSave
%Mem=1900MB
#P OB98/GEN NMR

erre ene a

0 1
  C      -16.420     352.865     -56.904
  O      -15.784     354.134     -56.878
  P      -15.203     354.703     -58.257
  C      -13.132     354.119     -59.732
  O      -13.738     354.079     -58.451
  C      -11.683     353.637     -59.635
  O      -10.897     354.565     -58.861
  C      -11.535     352.288     -58.946
  O      -11.858     351.222     -59.815
  C      -10.068     352.316     -58.531
  O       -9.221     351.911     -59.622
  C       -9.855     353.808     -58.203
  N       -9.822     354.063     -56.765
  C       -8.766     353.484     -56.068
  O       -7.913     352.777     -56.611
  N       -8.739     353.711     -54.720
  C       -9.679     354.402     -54.001
  O       -9.630     354.523     -52.783
  C      -10.789     354.964     -54.790
  C      -10.814     354.772     -56.107
  O      -14.921     356.247     -57.942
  O      -16.104     354.529     -59.432
  H       -8.300     352.012     -59.311
  H      -15.104     356.784     -58.740
  H       -7.969     353.322     -54.200
  H      -11.548     355.519     -54.253
  H      -11.627     355.166     -56.703
  H       -8.908     354.158     -58.637
  H       -9.861     351.639     -57.697
  H      -12.159     352.260     -58.038
  H      -11.260     353.596     -60.650
  H      -13.159     355.144     -60.112
  H      -13.703     353.481     -60.417
  P      -12.853     350.092     -59.240
  C      -12.656     348.485     -57.186
  O      -12.003     349.324     -58.120
  O      -12.907     349.086     -60.486
  O      -14.175     350.636     -58.818
  H      -12.071     349.064     -60.981
  H      -13.502     347.962     -57.643
  H      -13.006     349.085     -56.340
  H      -11.940     347.745     -56.819
  H      -16.756     352.614     -55.920
  H      -15.726     352.125     -57.243
  H      -17.258     352.899     -57.569

 3  4  5  6  7  8  9  10  11  12  13  23  28  29  30  31  32 0
 6-311+G(2d,p)
 ****
 33  34 0
 6-311+G(2d,p)
 ****
 1  2  14  15  16  17  18  19  20  21  22  24  25  26 0
 3-21G
 ****
 27  35  36  37  38  39  40  41  42  43  44  45 0
 3-21G
 ****


