%nproc=1
%NoSave
%Mem=1900MB
#P OB98/GEN NMR

erre ene a

0 1
  C      200.474      29.953    -288.847
  O      199.933      29.602    -287.588
  P      199.762      28.048    -287.233
  C      201.826      27.770    -285.631
  O      201.228      27.496    -286.884
  C      202.630      26.558    -285.150
  O      201.768      25.388    -285.157
  C      203.858      26.229    -286.009
  O      204.872      25.735    -285.126
  C      203.348      25.116    -286.911
  O      204.394      24.319    -287.440
  C      202.416      24.373    -285.945
  N      201.425      23.535    -286.622
  C      201.322      22.206    -286.228
  O      202.027      21.687    -285.364
  N      200.381      21.459    -286.893
  C      199.603      21.885    -287.930
  O      198.787      21.170    -288.501
  C      199.789      23.287    -288.332
  C      200.668      24.035    -287.665
  O      199.447      27.434    -288.676
  O      198.729      27.780    -286.193
  H      199.932      27.880    -289.392
  H      204.027      23.777    -288.164
  H      200.263      20.503    -286.600
  H      199.199      23.659    -289.161
  H      200.823      25.070    -287.944
  H      203.004      23.757    -285.252
  H      202.792      25.550    -287.746
  H      204.229      27.097    -286.557
  H      202.927      26.736    -284.107
  H      201.046      27.995    -284.896
  H      202.468      28.653    -285.722
  P      206.402      26.144    -285.428
  C      206.803      27.750    -283.400
  O      206.645      27.593    -284.793
  O      206.309      26.451    -287.000
  O      207.412      25.089    -285.107
  H      205.561      27.029    -287.226
  H      207.281      28.714    -283.210
  H      207.429      26.960    -282.980
  H      205.820      27.740    -282.916
  H      200.523      31.019    -288.930
  H      199.851      29.563    -289.624
  H      201.458      29.543    -288.939

 3  4  5  6  7  8  9  10  11  12  13  24  28  29  30  31  32 0
 6-311+G(2d,p)
 ****
 33  34 0
 6-311+G(2d,p)
 ****
 1  2  14  15  16  17  18  19  20  21  22  23  25  26  27 0
 3-21G
 ****
 35  36  37  38  39  40  41  42  43  44  45 0
 3-21G
 ****


