%nproc=1
%NoSave
%Mem=1900MB
#P OB98/GEN NMR

erre ene a

0 1
  C     -528.810    -451.325      52.658
  O     -527.932    -450.347      53.227
  P     -528.111    -450.056      54.791
  C     -526.772    -447.910      54.202
  O     -527.108    -448.868      55.196
  C     -525.397    -447.305      54.478
  O     -525.345    -446.604      55.743
  C     -524.275    -448.331      54.533
  O     -523.887    -448.692      53.223
  C     -523.193    -447.580      55.296
  O     -522.428    -446.736      54.413
  C     -524.007    -446.738      56.283
  N     -524.711    -445.538      61.163
  C     -524.576    -444.716      60.058
  N     -524.663    -443.392      60.285
  N     -524.373    -445.158      58.846
  C     -524.310    -446.510      58.762
  C     -524.450    -447.432      59.777
  C     -524.669    -446.924      61.123
  O     -524.815    -447.608      62.130
  N     -524.385    -448.714      59.306
  C     -524.072    -448.567      58.028
  N     -524.081    -447.250      57.638
  O     -527.473    -451.351      55.484
  O     -529.534    -449.863      55.201
  H     -522.041    -447.287      53.709
  H     -528.181    -451.890      55.893
  H     -524.844    -445.141      62.075
  H     -523.866    -449.380      57.347
  H     -523.600    -445.716      56.367
  H     -522.485    -448.265      55.769
  H     -524.821    -442.975      61.196
  H     -524.602    -449.215      55.105
  H     -524.579    -442.771      59.487
  H     -525.190    -446.567      53.689
  H     -527.522    -447.117      54.172
  H     -526.792    -448.399      53.218
  P     -523.718    -450.249      52.880
  C     -522.131    -449.456      50.989
  O     -523.132    -450.363      51.392
  O     -525.223    -450.768      52.748
  O     -522.972    -451.027      53.925
  H     -525.323    -451.608      53.221
  H     -521.500    -449.932      50.236
  H     -521.503    -449.131      51.825
  H     -522.597    -448.568      50.530
  H     -528.597    -451.432      51.615
  H     -529.825    -451.010      52.784
  H     -528.665    -452.264      53.150

 3  4  5  6  7  8  9  10  11  12  23  26  30  31 0
 6-311+G(2d,p)
 ****
 33  35  36  37  38 0
 6-311+G(2d,p)
 ****
 1  2  13  14  15  16  17  18  19  20  21  22  24  25 0
 3-21G
 ****
 27  28  29  32  34  39  40  41  42  43  44  45  46  47  48  49 0
 3-21G
 ****


