%nproc=1
%NoSave
%Mem=1900MB
#P OB98/GEN NMR

erre ene a

0 1
  C      512.128    -167.609      16.102
  O      511.824    -168.963      15.839
  H      512.379    -167.117      15.161
  H      512.986    -167.547      16.773
  H      511.270    -167.093      16.543
  P      511.141    -169.846      16.989
  C      509.265    -168.750      18.378
  O      509.630    -169.316      17.126
  C      507.876    -168.102      18.300
  O      507.910    -167.052      17.287
  C      506.753    -169.072      17.917
  O      505.547    -168.608      18.545
  C      506.672    -168.873      16.416
  O      505.451    -169.357      15.888
  C      506.893    -167.362      16.314
  N      507.271    -166.942      14.962
  C      507.228    -165.579      14.701
  O      506.851    -164.746      15.526
  N      507.575    -165.204      13.438
  C      507.903    -166.041      12.408
  O      508.176    -165.647      11.283
  C      507.898    -167.481      12.731
  C      507.588    -167.858      13.979
  O      511.894    -169.927      18.275
  O      510.944    -171.286      16.319
  H      505.381    -170.325      16.022
  H      510.997    -171.982      17.003
  H      507.553    -164.210      13.226
  H      508.141    -168.173      11.944
  H      507.577    -168.908      14.252
  H      505.987    -166.817      16.592
  H      507.477    -169.415      15.908
  H      506.956    -170.107      18.200
  H      507.665    -167.612      19.258
  H      510.012    -168.004      18.647
  H      509.260    -169.538      19.148
  P      505.168    -169.002      20.055
  C      506.139    -168.648      22.419
  O      506.162    -168.227      21.053
  O      505.076    -170.469      20.299
  O      503.755    -168.292      20.317
  H      503.253    -168.797      20.984
  H      506.836    -168.065      22.984
  H      506.408    -169.682      22.478
  H      505.155    -168.512      22.818

 6  7  8  9  10  11  12  13  14  15  16  26  31  32  33  34  35 0
 6-311+G(2d,p)
 ****
 36  37 0
 6-311+G(2d,p)
 ****
 1  2  3  4  5  17  18  19  20  21  22  23  24  25 0
 3-21G
 ****
 27  28  29  30  38  39  40  41  42  43  44  45 0
 3-21G
 ****


