%nproc=1
%NoSave
%Mem=1900MB
#P OB98/GEN NMR

erre ene a

0 1
  C       26.809     389.278     -88.941
  O       27.420     389.868     -87.810
  H       27.022     388.206     -88.936
  H       27.219     389.715     -89.856
  H       25.725     389.424     -88.911
  P       27.080     391.413     -87.531
  C       24.722     391.210     -86.394
  O       25.480     391.515     -87.551
  C       24.081     392.476     -85.821
  O       23.114     392.980     -86.775
  C       23.355     392.251     -84.492
  O       23.522     393.416     -83.683
  C       21.899     392.133     -84.907
  O       21.009     392.438     -83.837
  C       21.846     393.103     -86.098
  N       20.727     392.825     -86.996
  C       19.789     393.848     -87.166
  O       19.920     394.916     -86.565
  N       18.707     393.627     -87.977
  C       18.534     392.461     -88.520
  N       17.428     392.299     -89.292
  C       19.474     391.339     -88.331
  C       20.541     391.590     -87.574
  O       27.522     392.099     -88.907
  O       27.740     391.980     -86.319
  H       21.106     391.751     -83.143
  H       27.231     391.611     -89.695
  H       19.284     390.384     -88.796
  H       21.286     390.827     -87.389
  H       21.754     394.139     -85.746
  H       21.683     391.110     -85.241
  H       23.717     391.372     -83.957
  H       24.857     393.243     -85.720
  H       16.798     393.087     -89.375
  H       25.358     390.749     -85.632
  H       17.165     391.422     -89.716
  H       23.949     390.487     -86.675
  P       24.012     393.259     -82.167
  C       26.457     393.895     -82.726
  O       25.582     392.932     -82.149
  O       23.171     392.386     -81.300
  O       23.975     394.774     -81.628
  H       23.621     394.759     -80.717
  H       27.467     393.552     -82.646
  H       26.355     394.826     -82.208
  H       26.207     394.031     -83.757

 6  7  8  9  10  11  12  13  14  15  16  26  30  31  32  33  35 0
 6-311+G(2d,p)
 ****
 37  38 0
 6-311+G(2d,p)
 ****
 1  2  3  4  5  17  18  19  20  21  22  23  24  25 0
 3-21G
 ****
 27  28  29  34  36  39  40  41  42  43  44  45  46 0
 3-21G
 ****


