%nproc=1
%NoSave
%Mem=1900MB
#P OB98/GEN NMR

erre ene a

0 1
  C      271.035     551.710     126.589
  O      270.697     550.715     127.535
  H      272.083     551.985     126.733
  H      270.415     552.601     126.733
  H      270.910     551.330     125.571
  P      269.193     550.167     127.562
  C      269.620     549.120     125.237
  O      268.771     549.943     126.028
  C      268.795     548.336     124.221
  O      269.661     547.622     123.318
  C      267.867     547.289     124.841
  O      266.673     547.897     125.306
  C      267.632     546.383     123.643
  O      266.689     547.003     122.747
  C      269.029     546.350     122.994
  N      271.530     542.146     121.646
  C      270.636     542.913     120.925
  N      270.344     542.483     119.679
  N      270.069     543.998     121.387
  C      270.402     544.269     122.671
  C      271.260     543.575     123.493
  C      271.931     542.413     122.944
  O      272.750     541.719     123.543
  N      271.275     544.096     124.761
  C      270.466     545.136     124.691
  N      269.903     545.280     123.444
  O      268.211     550.977     128.350
  O      269.327     548.673     128.121
  H      266.562     546.393     121.998
  H      269.223     548.649     129.091
  H      271.927     541.318     121.236
  H      270.255     545.820     125.507
  H      268.973     546.277     121.903
  H      267.223     545.412     123.922
  H      270.629     541.581     119.323
  H      268.374     546.719     125.626
  H      269.644     543.002     119.157
  H      268.229     549.056     123.619
  H      270.143     548.441     125.914
  H      270.364     549.731     124.712
  P      265.627     547.095     126.222
  C      266.370     548.230     128.423
  O      266.293     547.031     127.676
  O      265.197     545.776     125.672
  O      264.430     548.127     126.452
  H      263.763     548.116     125.720
  H      266.835     548.033     129.366
  H      265.384     548.613     128.585
  H      266.949     548.950     127.883

 6  7  8  9  10  11  12  13  14  15  26  29  33  34 0
 6-311+G(2d,p)
 ****
 36  38  39  40  41 0
 6-311+G(2d,p)
 ****
 1  2  3  4  5  16  17  18  19  20  21  22  23  24  25 0
 3-21G
 ****
 27  28  30  31  32  35  37  42  43  44  45  46  47 0
 3-21G
 ****
 48  49 0
 3-21G
 ****


