%nproc=1
%NoSave
%Mem=1900MB
#P OB98/GEN NMR

erre ene a

0 1
  C      433.203      70.850    -158.202
  O      433.016      69.880    -157.162
  P      431.543      69.697    -156.559
  C      431.011      67.414    -157.685
  O      430.697      68.796    -157.578
  C      429.926      66.569    -157.006
  O      428.617      66.844    -157.553
  C      430.138      65.069    -157.160
  O      431.054      64.566    -156.197
  C      428.741      64.548    -156.865
  O      428.520      64.510    -155.438
  C      427.850      65.613    -157.516
  N      425.195      62.312    -160.284
  C      425.388      62.376    -158.918
  N      424.781      61.420    -158.180
  N      426.116      63.290    -158.328
  C      426.648      64.186    -159.191
  C      426.530      64.228    -160.564
  C      425.740      63.205    -161.202
  O      425.542      63.088    -162.411
  N      427.222      65.284    -161.090
  C      427.743      65.896    -160.044
  N      427.437      65.256    -158.867
  O      430.896      71.153    -156.755
  O      431.511      69.269    -155.130
  H      427.711      63.984    -155.297
  H      430.214      71.304    -156.076
  H      424.631      61.585    -160.686
  H      428.342      66.796    -160.083
  H      426.938      65.808    -156.942
  H      428.588      63.527    -157.233
  H      424.169      60.721    -158.562
  H      430.426      64.811    -158.185
  H      424.884      61.469    -157.173
  H      429.916      66.826    -155.937
  H      431.981      67.207    -157.228
  H      431.115      67.154    -158.743
  P      432.202      63.567    -156.706
  C      434.236      65.186    -156.704
  O      433.275      64.481    -157.468
  O      431.475      62.761    -157.884
  O      432.745      62.652    -155.663
  H      431.836      61.857    -157.942
  H      434.976      65.616    -157.381
  H      434.744      64.514    -156.007
  H      433.751      65.995    -156.148
  H      434.230      70.858    -158.501
  H      432.929      71.819    -157.840
  H      432.589      70.596    -159.041

 3  4  5  6  7  8  9  10  11  12  23  26  30  31 0
 6-311+G(2d,p)
 ****
 33  35  36  37  38 0
 6-311+G(2d,p)
 ****
 1  2  13  14  15  16  17  18  19  20  21  22  24  25 0
 3-21G
 ****
 27  28  29  32  34  39  40  41  42  43  44  45  46  47  48  49 0
 3-21G
 ****


