%nproc=1
%NoSave
%Mem=1900MB
#P OB98/GEN NMR

erre ene a

0 1
  C     -364.896     381.457    -278.308
  O     -364.458     381.751    -277.000
  H     -364.023     381.193    -278.920
  H     -365.382     382.327    -278.753
  H     -365.586     380.609    -278.288
  P     -365.568     382.270    -275.961
  C     -365.018     380.787    -273.898
  O     -365.900     381.039    -274.981
  C     -365.247     379.362    -273.386
  O     -365.129     378.428    -274.484
  C     -364.224     378.907    -272.361
  O     -364.484     379.402    -271.058
  C     -364.392     377.398    -272.437
  O     -365.474     376.936    -271.608
  C     -364.701     377.167    -273.924
  N     -363.554     376.622    -274.635
  C     -363.747     375.375    -275.236
  O     -364.808     374.757    -275.172
  N     -362.653     374.843    -275.867
  C     -361.414     375.394    -275.923
  O     -360.465     374.835    -276.463
  C     -361.259     376.698    -275.266
  C     -362.314     377.251    -274.657
  O     -366.876     382.406    -276.871
  O     -365.228     383.551    -275.264
  H     -367.066     383.353    -277.035
  H     -365.601     375.989    -271.838
  H     -362.777     373.934    -276.306
  H     -360.283     377.170    -275.290
  H     -362.233     378.200    -274.159
  H     -365.538     376.469    -274.041
  H     -363.500     376.879    -272.102
  H     -363.214     379.163    -272.690
  H     -366.266     379.294    -272.977
  H     -365.224     381.486    -273.083
  H     -363.988     380.923    -274.230
  P     -363.424     380.444    -270.431
  C     -364.878     382.034    -268.925
  O     -364.240     381.797    -270.170
  O     -362.527     380.752    -271.717
  O     -362.690     379.893    -269.255
  H     -363.026     380.637    -272.554
  H     -365.366     382.986    -268.950
  H     -364.148     382.028    -268.143
  H     -365.601     381.267    -268.743

 6  7  8  9  10  11  12  13  14  15  16  27  31  32  33  34  35 0
 6-311+G(2d,p)
 ****
 36  37 0
 6-311+G(2d,p)
 ****
 1  2  3  4  5  17  18  19  20  21  22  23  24  25 0
 3-21G
 ****
 26  28  29  30  38  39  40  41  42  43  44  45 0
 3-21G
 ****


