%nproc=1
%NoSave
%Mem=1900MB
#P OB98/GEN NMR

erre ene a

0 1
  C      120.611      54.371      48.695
  O      119.438      55.149      48.849
  P      118.513      55.486      47.588
  C      119.318      57.919      47.489
  O      119.212      56.691      46.783
  C      119.890      59.026      46.604
  O      121.163      58.581      46.057
  C      118.996      59.425      45.418
  O      119.194      60.828      45.209
  C      119.604      58.642      44.262
  O      119.271      59.186      42.994
  C      121.084      58.737      44.621
  N      123.910      57.600      40.509
  C      123.198      58.706      40.835
  N      122.450      58.919      41.938
  C      122.485      57.850      42.755
  C      123.138      56.646      42.540
  C      123.901      56.543      41.361
  N      124.658      55.444      41.030
  N      122.882      55.771      43.580
  C      122.092      56.433      44.400
  N      121.876      57.717      43.973
  O      117.067      55.704      47.896
  O      118.715      54.233      46.610
  H      118.309      59.355      42.972
  H      117.916      53.667      46.628
  H      123.241      59.519      40.123
  H      121.650      56.039      45.305
  H      121.513      59.714      44.363
  H      119.248      57.609      44.291
  H      117.934      59.198      45.565
  H      120.098      59.897      47.239
  H      119.982      57.762      48.344
  H      125.267      55.529      40.228
  H      124.878      54.764      41.757
  H      118.332      58.212      47.871
  P      118.209      61.636      44.232
  C      119.868      61.892      42.299
  O      118.663      61.291      42.734
  O      118.059      63.092      44.540
  O      116.815      60.852      44.383
  H      116.090      61.423      44.054
  H      119.667      62.923      41.991
  H      120.255      61.331      41.438
  H      120.617      61.889      43.090
  H      121.090      54.256      49.645
  H      121.278      54.861      48.017
  H      120.352      53.408      48.307

 3  4  5  6  7  8  9  10  11  12  22  25  29  30  31  32 0
 6-311+G(2d,p)
 ****
 33  36  37 0
 6-311+G(2d,p)
 ****
 1  2  13  14  15  16  17  18  19  20  21  23  24  26 0
 3-21G
 ****
 27  28  34  35  38  39  40  41  42  43  44  45  46  47  48 0
 3-21G
 ****


