%nproc=1
%NoSave
%Mem=1900MB
#P OB98/GEN NMR

erre ene a

0 1
  C       42.268       0.933      25.619
  O       42.489      -0.420      25.956
  H       42.778       1.148      24.677
  H       42.683       1.580      26.396
  H       41.203       1.141      25.493
  P       41.621      -1.077      27.131
  C       39.278      -0.904      26.071
  O       40.168      -0.400      27.056
  C       38.077      -1.595      26.724
  O       37.436      -0.659      27.638
  C       37.008      -2.064      25.726
  O       36.390      -3.233      26.279
  C       36.040      -0.899      25.740
  O       34.786      -1.261      25.207
  C       36.063      -0.525      27.224
  N       35.541       0.817      27.471
  C       34.211       1.037      27.137
  O       33.493       0.177      26.626
  N       33.734       2.298      27.364
  C       34.463       3.354      27.826
  O       33.992       4.473      27.981
  C       35.877       3.074      28.122
  C       36.344       1.837      27.937
  O       42.247      -1.061      28.485
  O       41.336      -2.569      26.624
  H       34.196      -0.479      25.166
  H       41.256      -3.172      27.387
  H       32.768       2.471      27.137
  H       36.485       3.893      28.481
  H       37.381       1.599      28.146
  H       35.464      -1.234      27.811
  H       36.424      -0.072      25.133
  H       37.411      -2.277      24.734
  H       38.442      -2.431      27.333
  H       39.828      -1.621      25.454
  H       38.932      -0.081      25.437
  P       35.972      -4.488      25.371
  C       37.907      -6.011      26.125
  O       37.288      -5.340      25.031
  O       35.147      -4.133      24.177
  O       35.153      -5.448      26.358
  H       34.511      -5.974      25.846
  H       38.768      -6.542      25.777
  H       37.214      -6.701      26.558
  H       38.204      -5.294      26.862

 6  7  8  9  10  11  12  13  14  15  16  26  31  32  33  34  35 0
 6-311+G(2d,p)
 ****
 36  37 0
 6-311+G(2d,p)
 ****
 1  2  3  4  5  17  18  19  20  21  22  23  24  25 0
 3-21G
 ****
 27  28  29  30  38  39  40  41  42  43  44  45 0
 3-21G
 ****


