%nproc=1
%NoSave
%Mem=1900MB
#P OB98/GEN NMR

erre ene a

0 1
  C     -119.274     203.184     344.185
  O     -119.847     202.009     344.727
  H     -120.076     203.888     343.951
  H     -118.724     202.962     343.267
  H     -118.606     203.645     344.916
  P     -118.908     200.718     344.892
  C     -119.416     200.074     342.447
  O     -119.445     199.657     343.810
  C     -119.637     198.894     341.500
  O     -119.576     199.326     340.125
  C     -118.586     197.800     341.612
  O     -118.586     197.099     342.834
  C     -118.788     197.037     340.314
  O     -119.856     196.097     340.398
  C     -119.164     198.183     339.338
  N     -118.076     198.515     338.430
  C     -117.754     197.552     337.484
  O     -118.319     196.459     337.409
  N     -116.727     197.864     336.635
  C     -115.978     199.005     336.674
  O     -115.055     199.218     335.897
  C     -116.337     199.974     337.719
  C     -117.357     199.689     338.538
  O     -118.806     200.165     346.285
  O     -117.504     201.180     344.280
  H     -119.643     195.484     341.127
  H     -116.778     200.565     344.542
  H     -116.486     197.182     335.934
  H     -115.760     200.882     337.790
  H     -117.646     200.392     339.318
  H     -120.038     197.895     338.734
  H     -117.895     196.484     340.015
  H     -117.591     198.272     341.543
  H     -120.644     198.498     341.681
  H     -118.428     200.512     342.254
  H     -120.179     200.842     342.284
  P     -117.461     197.260     343.952
  C     -115.709     195.684     342.821
  O     -116.541     195.942     343.940
  O     -117.898     197.797     345.274
  O     -116.485     198.356     343.277
  H     -116.122     198.903     344.002
  H     -115.170     194.773     342.979
  H     -115.017     196.491     342.698
  H     -116.312     195.594     341.942

 6  7  8  9  10  11  12  13  14  15  16  26  31  32  33  34  35 0
 6-311+G(2d,p)
 ****
 36  37 0
 6-311+G(2d,p)
 ****
 1  2  3  4  5  17  18  19  20  21  22  23  24  25 0
 3-21G
 ****
 27  28  29  30  38  39  40  41  42  43  44  45 0
 3-21G
 ****


