%nproc=1
%NoSave
%Mem=1900MB
#P OB98/GEN NMR

erre ene a

0 1
  C     -181.968     -89.418     202.614
  O     -181.835     -88.046     202.925
  H     -181.040     -89.766     202.154
  H     -182.789     -89.563     201.903
  H     -182.155     -89.998     203.522
  P     -183.084     -87.347     203.651
  C     -183.948     -85.853     201.702
  O     -183.265     -85.914     202.949
  C     -183.936     -84.422     201.175
  O     -184.879     -83.623     201.924
  C     -182.592     -83.714     201.320
  O     -181.677     -84.097     200.306
  C     -183.017     -82.254     201.235
  O     -183.160     -81.824     199.873
  C     -184.387     -82.264     201.924
  N     -186.030     -78.603     205.071
  C     -186.321     -78.887     203.780
  N     -185.852     -79.896     203.017
  C     -185.003     -80.665     203.722
  C     -184.605     -80.495     205.039
  C     -185.162     -79.405     205.731
  N     -184.838     -79.097     207.029
  N     -183.685     -81.462     205.394
  C     -183.537     -82.206     204.316
  N     -184.317     -81.763     203.284
  O     -182.501     -86.990     205.100
  O     -184.320     -88.177     203.731
  H     -183.897     -82.343     199.494
  H     -182.731     -87.701     205.728
  H     -187.021     -78.208     203.298
  H     -182.875     -83.061     204.230
  H     -185.125     -81.655     201.393
  H     -182.282     -81.599     201.707
  H     -182.171     -83.902     202.315
  H     -184.256     -84.433     200.123
  H     -184.987     -86.177     201.843
  H     -183.457     -86.532     200.995
  H     -185.256     -78.285     207.454
  H     -184.112     -79.629     207.492
  P     -180.436     -85.026     200.707
  C     -178.760     -83.172     201.426
  O     -179.097     -84.171     200.478
  O     -180.398     -86.112     199.535
  O     -180.543     -85.659     202.054
  H     -180.812     -86.947     199.829
  H     -177.848     -82.696     201.133
  H     -178.635     -83.622     202.389
  H     -179.543     -82.445     201.471

 6  7  8  9  10  11  12  13  14  15  25  28  32  33  34  35 0
 6-311+G(2d,p)
 ****
 36  37  40 0
 6-311+G(2d,p)
 ****
 1  2  3  4  5  16  17  18  19  20  21  22  23  24 0
 3-21G
 ****
 26  27  29  30  31  38  39 41  42  43  44  45  46  47  48 0
 3-21G
 ****


