%nproc=1
%NoSave
%Mem=1900MB
#P OB98/GEN NMR

erre ene a

0 1
  C       77.850     131.930    -310.404
  O       77.800     133.331    -310.197
  P       77.060     133.843    -308.864
  C       76.520     136.194    -307.860
  O       77.097     135.444    -308.916
  C       76.835     137.680    -308.050
  O       78.185     137.962    -307.630
  C       76.727     138.161    -309.492
  O       75.375     138.429    -309.825
  C       77.613     139.400    -309.464
  O       76.902     140.529    -308.923
  C       78.747     138.962    -308.524
  N       83.566     139.812    -309.791
  C       82.631     140.664    -309.235
  N       83.056     141.911    -308.933
  N       81.392     140.325    -308.994
  C       81.104     139.054    -309.360
  C       81.938     138.121    -309.933
  C       83.319     138.493    -310.145
  O       84.210     137.748    -310.542
  N       81.281     136.945    -310.184
  C       80.060     137.158    -309.735
  N       79.906     138.414    -309.206
  O       78.095     133.464    -307.706
  O       75.699     133.266    -308.632
  H       77.522     141.273    -308.803
  H       77.837     132.632    -307.270
  H       84.512     140.125    -309.937
  H       79.264     136.432    -309.751
  H       79.108     139.787    -307.902
  H       77.946     139.692    -310.465
  H       83.988     142.249    -309.112
  H       77.154     137.417    -310.174
  H       82.383     142.549    -308.529
  H       76.157     138.251    -307.404
  H       76.941     135.856    -306.910
  H       75.438     136.025    -307.849
  P       74.981     138.396    -311.378
  C       72.785     137.966    -312.700
  O       73.480     137.843    -311.474
  O       75.868     137.199    -311.961
  O       75.238     139.670    -312.112
  H       76.156     137.416    -312.869
  H       72.072     137.143    -312.783
  H       73.466     137.939    -313.556
  H       72.238     138.913    -312.705
  H       78.365     131.723    -311.319
  H       76.854     131.542    -310.459
  H       78.368     131.468    -309.590

 3  4  5  6  7  8  9  10  11  12  23  26  30  31 0
 6-311+G(2d,p)
 ****
 33  35  36  37  38 0
 6-311+G(2d,p)
 ****
 1  2  13  14  15  16  17  18  19  20  21  22  24  25 0
 3-21G
 ****
 27  28  29  32  34  39  40  41  42  43  44  45  46  47  48  49 0
 3-21G
 ****


