%nproc=1
%NoSave
%Mem=1900MB
#P OB98/GEN NMR

erre ene a

0 1
  C     -154.297      29.487     109.436
  O     -154.738      29.941     108.172
  H     -154.595      30.221     110.191
  H     -153.208      29.404     109.444
  H     -154.749      28.524     109.684
  P     -154.558      28.986     106.899
  C     -156.875      27.847     106.933
  O     -156.016      28.760     106.261
  C     -158.239      27.774     106.238
  O     -159.041      28.902     106.671
  C     -158.155      27.819     104.709
  O     -159.153      26.959     104.159
  C     -158.483      29.264     104.380
  O     -159.028      29.411     103.071
  C     -159.462      29.624     105.496
  N     -161.632      34.004     104.207
  C     -161.921      32.716     103.808
  N     -162.926      32.568     102.917
  N     -161.280      31.661     104.238
  C     -160.313      31.953     105.143
  C     -159.930      33.187     105.622
  C     -160.635      34.347     105.117
  O     -160.413      35.516     105.424
  N     -158.894      33.076     106.517
  C     -158.652      31.778     106.579
  N     -159.477      31.057     105.755
  O     -153.788      27.729     107.157
  O     -153.828      29.907     105.814
  H     -159.306      30.349     102.981
  H     -152.887      29.668     105.727
  H     -162.148      34.783     103.836
  H     -157.893      31.315     107.193
  H     -160.493      29.334     105.259
  H     -157.572      29.874     104.442
  H     -163.478      33.334     102.560
  H     -157.172      27.524     104.339
  H     -163.180      31.631     102.628
  H     -158.755      26.867     106.577
  H     -157.005      28.193     107.965
  H     -156.408      26.856     106.949
  P     -158.720      25.850     103.082
  C     -157.479      23.949     104.289
  O     -158.729      24.408     103.790
  O     -157.483      26.161     102.304
  O     -160.000      25.774     102.116
  H     -159.696      25.599     101.203
  H     -157.606      22.985     104.736
  H     -157.113      24.637     105.022
  H     -156.777      23.880     103.484

 6  7  8  9  10  11  12  13  14  15  26  29  33  34 0
 6-311+G(2d,p)
 ****
 36  38  39  40  41 0
 6-311+G(2d,p)
 ****
 1  2  3  4  5  16  17  18  19  20  21  22  23  24  25 0
 3-21G
 ****
 27  28  30  31  32  35  37  42  43  44  45  46  47 0
 3-21G
 ****
 48  49 0
 3-21G
 ****


