%nproc=1
%NoSave
%Mem=1900MB
#P OB98/GEN NMR

erre ene a

0 1
  C     -437.665     673.674      99.516
  O     -437.323     674.639      98.546
  H     -438.606     673.200      99.233
  H     -437.797     674.154     100.495
  H     -436.887     672.905      99.593
  P     -435.870     675.309      98.673
  C     -436.255     675.767      96.146
  O     -435.671     676.212      97.365
  C     -436.111     676.845      95.063
  O     -434.713     677.104      94.803
  C     -436.733     676.464      93.726
  O     -438.135     676.712      93.696
  C     -435.988     677.419      92.793
  O     -436.546     678.740      92.916
  C     -434.567     677.384      93.386
  N     -429.899     676.344      91.707
  C     -430.411     677.515      92.236
  N     -429.561     678.562      92.328
  N     -431.646     677.647      92.635
  C     -432.388     676.521      92.480
  C     -431.988     675.306      91.963
  C     -430.618     675.166      91.524
  O     -430.108     674.152      91.076
  N     -433.013     674.406      91.967
  C     -434.046     675.076      92.469
  N     -433.708     676.369      92.780
  O     -434.871     674.078      98.421
  O     -435.579     675.982      99.974
  H     -436.627     678.929      93.875
  H     -434.084     674.190      98.986
  H     -428.941     676.300      91.393
  H     -435.035     674.673      92.614
  H     -434.052     678.341      93.282
  H     -436.068     677.128      91.748
  H     -428.611     678.540      91.984
  H     -436.489     675.429      93.444
  H     -429.903     679.419      92.747
  H     -436.554     677.763      95.453
  H     -437.320     675.562      96.306
  H     -435.749     674.840      95.826
  P     -439.096     675.517      93.214
  C     -440.915     676.337      94.870
  O     -440.588     676.015      93.533
  O     -438.842     674.385      94.311
  O     -438.842     675.025      91.829
  H     -439.062     673.500      93.946
  H     -441.937     676.650      94.922
  H     -440.282     677.129      95.211
  H     -440.774     675.476      95.489

 6  7  8  9  10  11  12  13  14  15  26  29  33  34 0
 6-311+G(2d,p)
 ****
 36  38  39  40  41 0
 6-311+G(2d,p)
 ****
 1  2  3  4  5  16  17  18  19  20  21  22  23  24  25 0
 3-21G
 ****
 27  28  30  31  32  35  37  42  43  44  45  46  47 0
 3-21G
 ****
 48  49 0
 3-21G
 ****


