%nproc=1
%NoSave
%Mem=1900MB
#P OB98/GEN NMR

erre ene a

0 1
  C      -57.808      18.499     319.306
  O      -58.147      19.722     319.961
  P      -58.179      19.771     321.563
  C      -60.747      19.908     321.773
  O      -59.575      19.165     322.074
  C      -61.786      19.774     322.906
  O      -62.237      18.399     323.003
  C      -61.228      20.192     324.278
  O      -62.064      21.130     324.960
  C      -61.005      18.863     324.984
  O      -61.007      18.985     326.401
  C      -62.087      17.966     324.369
  N      -61.742      16.544     324.468
  C      -62.109      15.897     325.640
  O      -62.624      16.473     326.599
  N      -61.801      14.558     325.705
  C      -61.112      13.852     324.768
  O      -60.821      12.665     324.894
  C      -60.694      14.606     323.574
  C      -61.026      15.900     323.482
  O      -57.798      21.077     322.180
  O      -57.137      18.621     321.975
  H      -61.887      19.311     326.682
  H      -56.637      18.940     322.758
  H      -62.072      14.072     326.544
  H      -60.126      14.081     322.819
  H      -60.722      16.482     322.622
  H      -63.050      18.102     324.882
  H      -60.022      18.477     324.696
  H      -60.271      20.715     324.182
  H      -62.641      20.406     322.634
  H      -61.189      19.535     320.849
  H      -60.483      20.953     321.593
  P      -61.906      22.718     324.868
  C      -59.393      22.905     325.492
  O      -60.383      23.053     324.490
  O      -62.452      23.497     326.017
  O      -62.705      23.086     323.525
  H      -63.209      23.909     323.667
  H      -58.522      23.507     325.208
  H      -59.094      21.856     325.560
  H      -59.755      23.249     326.466
  H      -57.835      18.643     318.246
  H      -58.511      17.741     319.581
  H      -56.825      18.197     319.600

 3  4  5  6  7  8  9  10  11  12  13  23  28  29  30  31  32 0
 6-311+G(2d,p)
 ****
 33  34 0
 6-311+G(2d,p)
 ****
 1  2  14  15  16  17  18  19  20  21  22  24  25  26  27 0
 3-21G
 ****
 35  36  37  38  39  40  41  42  43  44  45 0
 3-21G
 ****


