%nproc=1
%NoSave
%Mem=1900MB
#P OB98/GEN NMR

erre ene a

0 1
  C     -779.995    -891.590    1158.326
  O     -781.070    -892.170    1157.627
  P     -780.958    -892.380    1156.034
  C     -779.902    -894.690    1156.387
  O     -780.929    -893.950    1155.731
  C     -780.117    -896.180    1156.156
  O     -781.138    -896.710    1157.051
  C     -780.565    -896.560    1154.761
  O     -779.527    -896.450    1153.817
  C     -781.089    -897.990    1154.993
  O     -779.986    -898.910    1155.014
  C     -781.702    -897.860    1156.411
  N     -783.154    -897.810    1156.336
  C     -783.847    -898.960    1156.727
  O     -783.236    -900.000    1157.023
  N     -785.217    -898.920    1156.776
  C     -785.856    -897.860    1156.387
  N     -787.220    -897.850    1156.484
  C     -785.162    -896.670    1155.812
  C     -783.839    -896.710    1155.851
  O     -779.885    -891.590    1155.353
  O     -782.419    -891.940    1155.498
  H     -782.304    -891.310    1154.763
  H     -779.699    -899.020    1154.068
  H     -785.749    -895.840    1155.432
  H     -783.236    -895.880    1155.481
  H     -781.395    -898.730    1157.000
  H     -781.767    -898.310    1154.199
  H     -781.402    -895.920    1154.465
  H     -779.162    -896.700    1156.411
  H     -787.645    -898.680    1156.899
  H     -779.935    -894.480    1157.450
  H     -787.739    -896.980    1156.503
  H     -778.937    -894.390    1155.985
  P     -779.897    -895.730    1152.418
  C     -778.861    -893.410    1152.962
  O     -778.791    -894.600    1152.155
  O     -781.226    -894.910    1152.757
  O     -780.108    -896.680    1151.295
  H     -781.830    -894.940    1151.983
  H     -777.877    -892.910    1152.892
  H     -779.080    -893.650    1154.002
  H     -779.620    -892.730    1152.556
  H     -780.238    -891.527    1159.366
  H     -779.809    -890.608    1157.943
  H     -779.121    -892.194    1158.200

 3  4  5  6  7  8  9  10  11  12  13  24  27  28  29  30  32 0
 6-311+G(2d,p)
 ****
 34  35 0
 6-311+G(2d,p)
 ****
 1  2  14  15  16  17  18  19  20  21  22  23  25  26 0
 3-21G
 ****
 31  33  36  37  38  39  40  41  42  43  44  45  46 0
 3-21G
 ****


