%nproc=1
%NoSave
%Mem=1900MB
#P OB98/GEN NMR

erre ene a

0 1
  C      -47.968      -9.464     -83.366
  O      -48.018     -10.240     -84.547
  H      -48.953      -9.043     -83.157
  H      -47.676     -10.111     -82.534
  H      -47.230      -8.662     -83.464
  P      -48.257      -9.448     -85.921
  C      -46.322     -10.781     -87.035
  O      -47.692     -10.406     -87.082
  C      -45.967     -11.655     -88.239
  O      -46.553     -12.970     -88.051
  C      -46.487     -11.101     -89.570
  O      -45.509     -11.341     -90.584
  C      -47.727     -11.936     -89.841
  O      -48.043     -11.999     -91.226
  C      -47.331     -13.275     -89.225
  N      -49.925     -17.538     -90.300
  C      -48.747     -17.061     -90.751
  N      -48.120     -15.915     -90.409
  C      -48.816     -15.261     -89.461
  C      -50.031     -15.622     -88.906
  C      -50.600     -16.819     -89.370
  N      -51.818     -17.295     -88.942
  N      -50.445     -14.673     -87.989
  C      -49.496     -13.759     -87.996
  N      -48.493     -14.069     -88.871
  O      -47.163      -8.277     -85.835
  O      -49.633      -8.915     -86.134
  H      -48.980     -12.270     -91.316
  H      -47.498      -7.564     -85.261
  H      -48.242     -17.676     -91.492
  H      -49.490     -12.858     -87.397
  H      -46.716     -13.882     -89.901
  H      -48.585     -11.503     -89.314
  H      -46.711     -10.034     -89.526
  H      -44.881     -11.793     -88.263
  H      -46.137     -11.339     -86.111
  H      -52.177     -18.134     -89.370
  H      -52.364     -16.744     -88.296
  H      -45.702      -9.878     -87.038
  P      -45.419     -10.263     -91.770
  C      -42.863      -9.838     -91.853
  O      -43.993     -10.415     -92.492
  O      -45.307      -8.867     -90.996
  O      -46.599     -10.286     -92.687
  H      -45.955      -8.233     -91.355
  H      -41.989     -10.017     -92.444
  H      -42.736     -10.279     -90.886
  H      -43.013      -8.784     -91.747

 6  7  8  9  10  11  12  13  14  15  25  28  32  33  34  35 0
 6-311+G(2d,p)
 ****
 36  39  40 0
 6-311+G(2d,p)
 ****
 1  2  3  4  5  16  17  18  19  20  21  22  23  24 0
 3-21G
 ****
 26  27  29  30  31  37  38  41  42  43  44  45  46  47 0
 3-21G
 ****
 48 0
 3-21G
 ****


