%nproc=1
%NoSave
%Mem=1900MB
#P OB98/GEN NMR

erre ene a

0 1
  C      218.343     151.299     104.939
  O      218.720     149.960     104.685
  H      219.249     151.904     105.034
  H      217.784     151.362     105.876
  H      217.741     151.696     104.119
  P      217.579     148.887     104.351
  C      218.791     147.451     102.585
  O      218.320     147.533     103.924
  C      219.948     146.457     102.502
  O      221.190     147.109     102.853
  C      219.817     145.279     103.456
  O      218.879     144.333     102.977
  C      221.254     144.784     103.500
  O      221.554     143.971     102.355
  C      222.043     146.111     103.458
  N      222.504     146.541     104.777
  C      223.672     145.947     105.250
  O      224.289     145.081     104.630
  N      224.097     146.365     106.484
  C      223.422     147.210     107.316
  O      223.803     147.484     108.452
  C      222.183     147.787     106.777
  C      221.788     147.431     105.552
  O      216.513     149.347     103.414
  O      216.973     148.523     105.790
  H      220.868     143.275     102.325
  H      216.106     148.957     105.897
  H      224.931     145.938     106.849
  H      221.629     148.472     107.404
  H      220.873     147.841     105.139
  H      222.921     146.010     102.805
  H      221.457     144.179     104.384
  H      219.535     145.631     104.454
  H      220.031     146.112     101.462
  H      219.137     148.441     102.271
  H      217.964     147.139     101.935
  P      218.167     143.326     103.996
  C      215.858     143.301     102.868
  O      217.022     142.546     103.194
  O      217.734     143.929     105.294
  O      219.271     142.193     104.242
  H      219.504     142.167     105.190
  H      215.167     142.680     102.337
  H      216.133     144.134     102.255
  H      215.400     143.656     103.767

 6  7  8  9  10  11  12  13  14  15  16  26  31  32  33  34  35 0
 6-311+G(2d,p)
 ****
 36  37 0
 6-311+G(2d,p)
 ****
 1  2  3  4  5  17  18  19  20  21  22  23  24  25 0
 3-21G
 ****
 27  28  29  30  38  39  40  41  42  43  44  45 0
 3-21G
 ****


