%nproc=1
%NoSave
%Mem=1900MB
#P OB98/GEN NMR

erre ene a

0 1
  C      128.836     -14.803     584.253
  O      129.886     -15.137     585.166
  P      130.834     -16.412     585.031
  C      131.247     -16.548     587.621
  O      131.793     -16.463     586.316
  C      131.818     -15.487     588.591
  O      131.140     -14.222     588.385
  C      131.557     -15.888     590.042
  O      132.432     -16.797     590.703
  C      131.371     -14.565     590.775
  O      132.570     -14.089     591.380
  C      130.905     -13.609     589.670
  N      127.514      -9.900     590.657
  C      128.891      -9.857     590.711
  N      129.452      -8.708     591.133
  N      129.664     -10.878     590.402
  C      128.975     -11.995     590.080
  C      127.613     -12.176     590.015
  C      126.763     -11.027     590.298
  O      125.544     -11.006     590.250
  N      127.277     -13.456     589.671
  C      128.448     -14.080     589.561
  N      129.512     -13.228     589.799
  O      131.476     -16.610     583.697
  O      129.828     -17.650     585.276
  H      132.910     -14.785     591.972
  H      130.148     -18.393     584.723
  H      126.970      -9.085     590.881
  H      128.566     -15.122     589.320
  H      131.484     -12.675     589.679
  H      130.638     -14.681     591.591
  H      128.916      -7.943     591.500
  H      130.576     -16.379     590.060
  H      130.438      -8.739     591.385
  H      132.883     -15.301     588.376
  H      131.459     -17.551     587.994
  H      130.158     -16.446     587.581
  P      131.995     -17.960     591.702
  C      133.903     -18.166     593.398
  O      133.320     -18.700     592.219
  O      131.333     -19.066     590.734
  O      131.031     -17.558     592.773
  H      130.798     -19.702     591.252
  H      134.944     -18.538     593.473
  H      133.343     -18.501     594.275
  H      133.912     -17.067     593.372
  H      128.357     -13.902     584.575
  H      128.120     -15.598     584.227
  H      129.246     -14.660     583.275

 3  4  5  6  7  8  9  10  11  12  23  26  30  31 0
 6-311+G(2d,p)
 ****
 33  35  36  37  38 0
 6-311+G(2d,p)
 ****
 1  2  13  14  15  16  17  18  19  20  21  22  24  25 0
 3-21G
 ****
 27  28  29  32  34  39  40  41  42  43  44  45  46  47  48  49 0
 3-21G
 ****


