%nproc=1
%NoSave
%Mem=1900MB
#P OB98/GEN NMR

erre ene a

0 1
  C      -87.368     389.704    -284.160
  O      -88.599     389.738    -283.465
  H      -87.170     388.679    -284.481
  H      -86.566     390.022    -283.486
  H      -87.394     390.352    -285.039
  P      -89.283     391.172    -283.251
  C      -89.843     392.887    -285.120
  O      -89.992     391.559    -284.642
  C      -90.911     393.198    -286.169
  O      -90.667     392.361    -287.340
  C      -92.351     392.939    -285.698
  O      -93.212     393.938    -286.259
  C      -92.679     391.608    -286.351
  O      -94.085     391.409    -286.506
  C      -91.927     391.741    -287.671
  N      -91.474     389.536    -292.159
  C      -91.449     390.875    -291.808
  N      -91.346     391.772    -292.811
  N      -91.523     391.298    -290.571
  C      -91.601     390.294    -289.665
  C      -91.637     388.939    -289.883
  C      -91.577     388.482    -291.257
  O      -91.614     387.316    -291.633
  N      -91.787     388.254    -288.699
  C      -91.855     389.196    -287.771
  N      -91.748     390.450    -288.312
  O      -88.020     392.157    -283.185
  O      -90.147     391.293    -282.041
  H      -94.487     391.397    -285.618
  H      -87.766     392.304    -282.255
  H      -91.435     389.266    -293.127
  H      -92.000     389.025    -286.715
  H      -92.450     392.386    -288.389
  H      -92.279     390.780    -285.750
  H      -91.256     391.523    -293.784
  H      -92.467     392.917    -284.607
  H      -91.286     392.752    -292.568
  H      -90.790     394.239    -286.489
  H      -88.853     392.999    -285.574
  H      -89.923     393.581    -284.276
  P      -93.659     395.163    -285.326
  C      -93.388     397.753    -285.333
  O      -93.004     396.507    -285.899
  O      -92.837     394.903    -283.977
  O      -95.125     395.224    -285.072
  H      -93.363     395.190    -283.209
  H      -92.863     398.545    -285.825
  H      -93.149     397.760    -284.290
  H      -94.442     397.892    -285.458

 6  7  8  9  10  11  12  13  14  15  26  29  33  34 0
 6-311+G(2d,p)
 ****
 36  38  39  40  41 0
 6-311+G(2d,p)
 ****
 1  2  3  4  5  16  17  18  19  20  21  22  23  24  25 0
 3-21G
 ****
 27  28  30  31  32  35  37  42  43  44  45  46  47 0
 3-21G
 ****
 48  49 0
 3-21G
 ****


