%nproc=1
%NoSave
%Mem=1900MB
#P OB98/GEN NMR

erre ene a

0 1
  C       94.068     565.008     706.087
  O       94.407     565.954     705.062
  P       93.846     565.699     703.583
  C       92.528     567.926     703.559
  O       93.521     567.124     702.907
  C       92.926     569.408     703.509
  O       93.960     569.659     704.507
  C       93.524     569.879     702.173
  O       92.635     570.363     701.164
  C       94.357     571.076     702.632
  O       93.514     572.247     702.740
  C       94.849     570.671     704.017
  N       99.789     571.975     703.689
  C       98.665     572.708     703.673
  N       97.386     572.284     703.770
  C       97.333     570.950     703.896
  C       98.401     570.068     703.933
  C       99.687     570.632     703.817
  N      100.839     569.875     703.817
  N       97.957     568.766     704.066
  C       96.641     568.864     704.098
  N       96.214     570.171     704.012
  O       92.777     564.666     703.454
  O       95.173     565.251     702.791
  H       94.098     572.980     703.017
  H       94.931     564.554     702.146
  H       98.800     573.780     703.569
  H       95.965     568.023     704.181
  H       94.829     571.503     704.732
  H       95.143     571.328     701.914
  H       94.182     569.110     701.753
  H       92.044     570.029     703.760
  H       92.421     567.608     704.597
  H      101.718     570.346     703.688
  H      100.769     568.868     703.854
  H       91.580     567.727     703.067
  P       93.135     570.618     699.665
  C       91.501     568.817     698.693
  O       91.916     570.163     698.725
  O       94.454     570.009     699.325
  O       93.093     572.211     699.557
  H       92.207     572.597     699.579
  H       90.551     568.745     698.179
  H       91.376     568.424     699.706
  H       92.243     568.212     698.155
  H       94.512     565.311     707.012
  H       94.435     564.040     705.815
  H       93.004     564.968     706.198

 3  4  5  6  7  8  9  10  11  12  22  25  29  30  31  32 0
 6-311+G(2d,p)
 ****
 33  36  37 0
 6-311+G(2d,p)
 ****
 1  2  13  14  15  16  17  18  19  20  21  23  24  26 0
 3-21G
 ****
 27  28  34  35  38  39  40  41  42  43  44  45  46  47  48 0
 3-21G
 ****


