%nproc=1
%NoSave
%Mem=1900MB
#P OB98/GEN NMR

erre ene a

0 1
  C     -174.546      21.760    -474.640
  O     -174.234      22.185    -475.954
  P     -173.754      23.707    -476.151
  C     -172.006      23.425    -478.054
  O     -172.240      23.640    -476.670
  C     -170.512      23.202    -478.310
  O     -170.096      21.924    -477.791
  C     -170.127      23.188    -479.782
  O     -169.987      24.491    -480.319
  C     -168.780      22.487    -479.721
  O     -167.759      23.423    -479.327
  C     -169.007      21.447    -478.618
  N     -167.163      16.885    -479.813
  C     -166.575      17.920    -479.107
  N     -165.292      17.731    -478.721
  N     -167.188      19.031    -478.808
  C     -168.463      19.086    -479.271
  C     -169.152      18.123    -479.976
  C     -168.458      16.899    -480.310
  O     -168.904      15.972    -480.975
  N     -170.429      18.533    -480.260
  C     -170.515      19.738    -479.726
  N     -169.333      20.134    -479.155
  O     -173.604      24.246    -474.650
  O     -174.679      24.552    -476.962
  H     -167.761      24.138    -479.990
  H     -173.585      25.219    -474.642
  H     -166.643      16.047    -480.023
  H     -171.403      20.362    -479.749
  H     -168.129      21.335    -477.973
  H     -168.474      22.072    -480.687
  H     -164.750      16.921    -478.974
  H     -170.829      22.579    -480.369
  H     -164.819      18.500    -478.258
  H     -169.958      23.986    -477.773
  H     -172.344      24.297    -478.619
  H     -172.579      22.553    -478.384
  P     -171.194      25.033    -481.230
  C     -171.911      27.198    -479.986
  O     -172.162      25.825    -480.231
  O     -172.010      23.699    -481.575
  O     -170.762      25.768    -482.456
  H     -172.497      23.804    -482.420
  H     -172.795      27.636    -479.512
  H     -171.714      27.735    -480.918
  H     -171.057      27.307    -479.308
  H     -174.848      20.734    -474.659
  H     -175.343      22.359    -474.251
  H     -173.683      21.866    -474.016

 3  4  5  6  7  8  9  10  11  12  23  26  30  31 0
 6-311+G(2d,p)
 ****
 33  35  36  37  38 0
 6-311+G(2d,p)
 ****
 1  2  13  14  15  16  17  18  19  20  21  22  24  25 0
 3-21G
 ****
 27  28  29  32  34  39  40  41  42  43  44  45  46  47  48  49 0
 3-21G
 ****


