%nproc=1
%NoSave
%Mem=1900MB
#P OB98/GEN NMR

erre ene a

0 1
  C     -487.087    -372.074    -893.890
  O     -488.190    -371.204    -893.780
  H     -486.439    -371.954    -893.010
  H     -486.511    -371.841    -894.780
  H     -487.417    -373.118    -893.920
  P     -489.413    -371.442    -894.780
  C     -490.788    -372.869    -893.100
  O     -490.116    -372.833    -894.350
  C     -491.543    -374.200    -892.930
  O     -492.622    -374.246    -893.910
  C     -490.654    -375.434    -893.170
  O     -491.025    -376.456    -892.240
  C     -491.016    -375.868    -894.580
  O     -490.780    -377.265    -894.800
  C     -492.498    -375.469    -894.650
  N     -495.674    -377.186    -898.170
  C     -495.538    -377.536    -896.830
  N     -496.376    -378.495    -896.360
  N     -494.666    -376.990    -896.020
  C     -493.925    -376.035    -896.610
  C     -493.946    -375.613    -897.910
  C     -494.906    -376.228    -898.800
  O     -495.038    -376.000    -900.000
  N     -492.998    -374.644    -898.150
  C     -492.401    -374.478    -896.980
  N     -492.928    -375.295    -896.010
  O     -488.693    -371.806    -896.170
  O     -490.349    -370.284    -894.940
  H     -491.426    -377.757    -894.250
  H     -488.881    -371.118    -896.830
  H     -496.357    -377.658    -898.740
  H     -491.587    -373.779    -896.780
  H     -493.138    -376.228    -894.190
  H     -490.420    -375.292    -895.310
  H     -497.112    -378.912    -896.900
  H     -489.584    -375.221    -893.070
  H     -496.335    -378.728    -895.370
  H     -491.995    -374.212    -891.940
  H     -491.507    -372.041    -893.060
  H     -490.051    -372.747    -892.290
  P     -490.283    -376.458    -890.820
  C     -492.446    -376.322    -889.400
  O     -491.219    -375.709    -889.740
  O     -489.066    -375.418    -891.040
  O     -489.779    -377.799    -890.400
  H     -488.226    -375.915    -891.090
  H     -492.958    -375.719    -888.679
  H     -492.258    -377.291    -888.986
  H     -493.051    -376.420    -890.277

 6  7  8  9  10  11  12  13  14  15  26  29  33  34 0
 6-311+G(2d,p)
 ****
 36  38  39  40  41 0
 6-311+G(2d,p)
 ****
 1  2  3  4  5  16  17  18  19  20  21  22  23  24  25 0
 3-21G
 ****
 27  28  30  31  32  35  37  42  43  44  45  46  47 0
 3-21G
 ****
 48  49 0
 3-21G
 ****


