%nproc=1
%NoSave
%Mem=1900MB
#P OB98/GEN NMR

erre ene a

0 1
  C      327.559     216.662    -194.367
  O      326.893     217.910    -194.310
  H      328.628     216.831    -194.180
  H      327.448     216.204    -195.354
  H      327.174     215.991    -193.597
  P      325.366     217.973    -194.804
  C      324.237     217.940    -192.475
  O      324.518     217.207    -193.672
  C      322.744     218.225    -192.339
  O      321.982     217.026    -192.604
  C      322.328     218.664    -190.945
  O      322.792     219.946    -190.580
  C      320.833     218.377    -190.946
  O      320.050     219.431    -191.481
  C      320.743     217.140    -191.877
  N      320.436     215.918    -191.136
  C      319.179     215.866    -190.545
  O      318.365     216.790    -190.604
  N      318.890     214.730    -189.839
  C      319.750     213.685    -189.631
  O      319.447     212.712    -188.947
  C      321.075     213.809    -190.262
  C      321.354     214.906    -190.969
  O      325.112     217.467    -196.194
  O      324.959     219.504    -194.593
  H      320.333     219.561    -192.412
  H      324.142     219.725    -195.101
  H      317.985     214.673    -189.415
  H      321.783     212.995    -190.105
  H      322.330     215.013    -191.443
  H      319.957     217.283    -192.629
  H      320.460     218.185    -189.937
  H      322.772     217.963    -190.228
  H      322.470     218.976    -193.095
  H      324.788     218.890    -192.537
  H      324.609     217.377    -191.609
  P      323.493     220.263    -189.178
  C      325.738     221.226    -190.043
  O      325.084     220.163    -189.385
  O      322.878     219.649    -187.963
  O      323.272     221.858    -189.069
  H      323.148     222.081    -188.128
  H      326.785     221.017    -190.105
  H      325.587     222.132    -189.494
  H      325.337     221.335    -191.029

 6  7  8  9  10  11  12  13  14  15  16  26  31  32  33  34  35 0
 6-311+G(2d,p)
 ****
 36  37 0
 6-311+G(2d,p)
 ****
 1  2  3  4  5  17  18  19  20  21  22  23  24  25 0
 3-21G
 ****
 27  28  29  30  38  39  40  41  42  43  44  45 0
 3-21G
 ****


