%nproc=1
%NoSave
%Mem=1900MB
#P OB98/GEN NMR

erre ene a

0 1
  C     -117.385     168.564    -435.612
  O     -117.249     169.978    -435.604
  P     -116.512     170.744    -436.812
  C     -114.184     170.339    -435.764
  O     -115.043     170.104    -436.877
  C     -112.830     169.683    -436.013
  O     -112.999     168.256    -436.150
  C     -112.131     170.136    -437.290
  O     -111.549     171.423    -437.123
  C     -111.141     168.991    -437.498
  O     -109.999     169.154    -436.648
  C     -111.964     167.771    -437.041
  N     -112.552     167.026    -438.160
  C     -111.770     166.002    -438.704
  O     -110.654     165.744    -438.240
  N     -112.281     165.253    -439.734
  C     -113.462     165.530    -440.211
  N     -113.942     164.715    -441.187
  C     -114.294     166.635    -439.707
  C     -113.784     167.328    -438.684
  O     -116.547     172.231    -436.723
  O     -117.199     170.158    -438.134
  H     -109.367     168.444    -436.881
  H     -118.008     170.660    -438.411
  H     -115.269     166.829    -440.140
  H     -114.347     168.151    -438.245
  H     -111.345     167.092    -436.447
  H     -110.784     168.910    -438.533
  H     -112.840     170.165    -438.124
  H     -112.190     169.869    -435.136
  H     -113.416     163.866    -441.374
  H     -114.635     169.897    -434.871
  H     -114.934     164.676    -441.399
  H     -114.077     171.420    -435.613
  P     -111.199     172.255    -438.452
  C     -108.703     171.664    -438.031
  O     -109.773     171.695    -438.957
  O     -110.868     173.718    -437.892
  O     -112.288     172.261    -439.480
  H     -111.638     174.307    -438.027
  H     -107.908     171.047    -438.450
  H     -109.022     171.222    -437.076
  H     -108.318     172.670    -437.874
  H     -117.900     168.250    -434.728
  H     -116.415     168.113    -435.639
  H     -117.942     168.264    -436.475

 3  4  5  6  7  8  9  10  11  12  13  23  27  28  29  30  32 0
 6-311+G(2d,p)
 ****
 34  35 0
 6-311+G(2d,p)
 ****
 1  2  14  15  16  17  18  19  20  21  22  24  25  26 0
 3-21G
 ****
 31  33  36  37  38  39  40  41  42  43  44  45  46 0
 3-21G
 ****


