%nproc=1
%NoSave
%Mem=1900MB
#P OB98/GEN NMR

erre ene a

0 1
  C      -13.802     -21.053      -3.112
  O      -13.011     -21.375      -4.236
  H      -13.143     -20.876      -2.256
  H      -14.472     -21.882      -2.874
  H      -14.382     -20.146      -3.304
  P      -13.788     -21.677      -5.606
  C      -13.080     -19.523      -6.864
  O      -14.137     -20.244      -6.247
  C      -13.509     -19.025      -8.245
  O      -13.619     -20.165      -9.143
  C      -14.861     -18.299      -8.251
  O      -14.797     -17.212      -9.179
  C      -15.814     -19.352      -8.790
  O      -16.981     -18.776      -9.367
  C      -14.907     -20.072      -9.782
  N      -18.418     -22.448     -12.490
  C      -18.128     -21.102     -12.382
  N      -18.894     -20.253     -13.101
  N      -17.172     -20.628     -11.628
  C      -16.470     -21.590     -10.984
  C      -16.663     -22.950     -10.999
  C      -17.740     -23.462     -11.820
  O      -18.060     -24.640     -11.939
  N      -15.762     -23.585     -10.180
  C      -15.027     -22.611      -9.675
  N      -15.417     -21.383     -10.136
  O      -15.214     -22.216      -5.115
  O      -13.114     -22.632      -6.532
  H      -17.547     -18.448      -8.637
  H      -15.587     -22.849      -5.758
  H      -19.173     -22.759     -13.076
  H      -14.211     -22.739      -8.976
  H      -14.786     -19.513     -10.720
  H      -16.126     -20.026      -7.984
  H      -19.626     -20.548     -13.727
  H      -15.162     -17.927      -7.269
  H      -18.690     -19.262     -13.047
  H      -12.716     -18.384      -8.648
  H      -12.212     -20.181      -6.968
  H      -12.811     -18.671      -6.232
  P      -14.695     -15.728      -8.579
  C      -12.412     -14.843      -9.440
  O      -13.147     -15.371      -8.347
  O      -15.262     -15.904      -7.091
  O      -15.481     -14.713      -9.340
  H      -16.142     -15.492      -7.024
  H      -11.404     -14.656      -9.135
  H      -12.862     -13.928      -9.763
  H      -12.416     -15.547     -10.246

 6  7  8  9  10  11  12  13  14  15  26  29  33  34 0
 6-311+G(2d,p)
 ****
 36  38  39  40  41 0
 6-311+G(2d,p)
 ****
 1  2  3  4  5  16  17  18  19  20  21  22  23  24  25 0
 3-21G
 ****
 27  28  30  31  32  35  37  42  43  44  45  46  47 0
 3-21G
 ****
 48  49 0
 3-21G
 ****


