%nproc=1
%NoSave
%Mem=1900MB
#P OB98/GEN NMR

erre ene a

0 1
  C     -108.424      84.524     398.693
  O     -108.266      83.121     398.752
  H     -109.087      84.835     399.505
  H     -108.879      84.813     397.742
  H     -107.461      85.029     398.817
  P     -107.217      82.421     397.764
  C     -108.965      82.021     395.904
  O     -107.747      82.662     396.270
  C     -109.377      82.451     394.498
  O     -109.640      83.871     394.470
  C     -108.303      82.208     393.440
  O     -108.243      80.839     393.080
  C     -108.779      83.136     392.333
  O     -109.832      82.533     391.568
  C     -109.305      84.343     393.144
  N     -108.348      85.449     393.204
  C     -108.272      86.267     392.078
  O     -108.937      86.076     391.058
  N     -107.378      87.301     392.153
  C     -106.493      87.525     393.169
  O     -105.645      88.412     393.146
  C     -106.599      86.618     394.319
  C     -107.507      85.636     394.285
  O     -106.866      81.007     398.090
  O     -105.931      83.374     397.845
  H     -110.029      83.146     390.833
  H     -105.241      82.943     398.388
  H     -107.299      87.898     391.343
  H     -105.923      86.769     395.151
  H     -107.597      84.954     395.122
  H     -110.233      84.721     392.700
  H     -107.980      83.391     391.637
  H     -107.333      82.558     393.804
  H     -110.310      81.929     394.236
  H     -109.742      82.310     396.618
  H     -108.824      80.933     395.953
  P     -106.876      80.224     392.522
  C     -107.574      80.544     390.068
  O     -106.611      80.854     391.071
  O     -106.768      78.736     392.594
  O     -105.748      80.915     393.427
  H     -105.254      80.229     393.912
  H     -107.296      81.015     389.149
  H     -108.535      80.900     390.374
  H     -107.614      79.484     389.928

 6  7  8  9  10  11  12  13  14  15  16  26  31  32  33  34  35 0
 6-311+G(2d,p)
 ****
 36  37 0
 6-311+G(2d,p)
 ****
 1  2  3  4  5  17  18  19  20  21  22  23  24  25 0
 3-21G
 ****
 27  28  29  30  38  39  40  41  42  43  44  45 0
 3-21G
 ****


