%nproc=1
%NoSave
%Mem=1900MB
#P OB98/GEN NMR

erre ene a

0 1
  C      507.800     619.550     250.243
  O      507.205     620.293     251.288
  H      507.004     619.163     249.599
  H      508.361     618.704     250.657
  H      508.459     620.182     249.645
  P      508.154     621.065     252.324
  C      507.589     623.408     251.433
  O      508.605     622.428     251.614
  C      508.203     624.789     251.234
  O      508.994     625.130     252.399
  C      509.117     624.890     250.003
  O      508.942     626.173     249.411
  C      510.513     624.789     250.596
  O      511.495     625.427     249.777
  C      510.329     625.455     251.960
  N      514.439     626.814     254.565
  C      513.623     627.555     253.736
  N      513.966     628.852     253.540
  N      512.564     627.076     253.130
  C      512.337     625.774     253.424
  C      513.063     624.924     254.225
  C      514.246     625.469     254.881
  O      515.009     624.858     255.611
  N      512.522     623.662     254.252
  C      511.467     623.738     253.456
  N      511.318     624.997     252.922
  O      509.277     620.254     252.889
  O      507.153     621.560     253.476
  H      511.540     624.919     248.934
  H      507.194     620.970     254.248
  H      515.249     627.226     254.992
  H      510.796     622.930     253.236
  H      510.417     626.545     251.902
  H      510.795     623.733     250.712
  H      514.753     629.300     253.977
  H      508.923     624.103     249.265
  H      513.369     629.419     252.954
  H      507.388     625.527     251.171
  H      506.952     623.409     252.317
  H      506.981     623.138     250.559
  P      507.736     626.380     248.367
  C      505.303     626.783     249.128
  O      506.626     627.314     249.071
  O      507.219     625.143     247.722
  O      508.378     627.381     247.278
  H      507.953     627.210     246.412
  H      504.657     627.485     249.613
  H      505.310     625.866     249.679
  H      504.949     626.600     248.135

 6  7  8  9  10  11  12  13  14  15  26  29  33  34 0
 6-311+G(2d,p)
 ****
 36  38  39  40  41 0
 6-311+G(2d,p)
 ****
 1  2  3  4  5  16  17  18  19  20  21  22  23  24  25 0
 3-21G
 ****
 27  28  30  31  32  35  37  42  43  44  45  46  47 0
 3-21G
 ****
 48  49 0
 3-21G
 ****


