%nproc=1
%NoSave
%Mem=1900MB
#P OB98/GEN NMR

erre ene a

0 1
  C      362.668    -506.327      21.279
  O      363.774    -505.623      20.746
  H      362.364    -507.091      20.560
  H      361.828    -505.648      21.447
  H      362.946    -506.818      22.216
  P      364.389    -504.412      21.593
  C      366.577    -505.716      22.024
  O      365.452    -505.068      22.604
  C      367.724    -505.786      23.034
  O      368.154    -504.455      23.392
  C      367.370    -506.489      24.340
  O      367.454    -507.897      24.186
  C      368.452    -505.938      25.255
  O      369.701    -506.605      24.980
  C      368.534    -504.467      24.796
  N      368.056    -501.507      28.889
  C      369.052    -502.404      28.558
  N      370.046    -502.558      29.462
  N      369.064    -503.096      27.449
  C      367.972    -502.894      26.678
  C      366.917    -502.047      26.907
  C      366.944    -501.234      28.105
  O      366.092    -500.410      28.421
  N      365.947    -502.179      25.946
  C      366.442    -503.067      25.106
  N      367.671    -503.543      25.510
  O      363.399    -503.505      22.259
  O      365.315    -503.630      20.550
  H      369.568    -507.550      25.180
  H      364.823    -502.912      20.112
  H      368.095    -501.005      29.763
  H      365.964    -503.401      24.192
  H      369.552    -504.068      24.866
  H      368.231    -506.083      26.309
  H      370.012    -502.168      30.391
  H      366.391    -506.170      24.718
  H      370.751    -503.255      29.259
  H      368.575    -506.274      22.538
  H      366.874    -505.137      21.143
  H      366.311    -506.729      21.705
  P      366.761    -508.898      25.238
  C      364.873    -509.488      23.570
  O      365.211    -508.933      24.831
  O      367.022    -508.582      26.668
  O      367.259    -510.349      24.788
  H      368.139    -510.588      25.170
  H      363.813    -509.445      23.434
  H      365.197    -510.507      23.530
  H      365.355    -508.930      22.794

 6  7  8  9  10  11  12  13  14  15  26  29  33  34 0
 6-311+G(2d,p)
 ****
 36  38  39  40  41 0
 6-311+G(2d,p)
 ****
 1  2  3  4  5  16  17  18  19  20  21  22  23  24  25 0
 3-21G
 ****
 27  28  30  31  32  35  37  42  43  44  45  46  47 0
 3-21G
 ****
 48  49 0
 3-21G
 ****


