%nproc=1
%NoSave
%Mem=1900MB
#P OB98/GEN NMR

erre ene a

0 1
  C      283.845    -934.292     940.437
  O      284.989    -934.553     939.650
  H      282.967    -934.260     939.781
  H      283.951    -933.320     940.925
  H      283.697    -935.074     941.187
  P      286.310    -935.034     940.421
  C      286.798    -937.377     939.418
  O      286.244    -936.640     940.493
  C      285.691    -937.887     938.491
  O      284.942    -936.744     937.987
  C      286.190    -938.684     937.278
  O      285.270    -939.749     937.004
  C      286.101    -937.676     936.151
  O      286.013    -938.297     934.873
  C      284.854    -936.901     936.559
  N      281.926    -934.178     933.520
  C      281.663    -935.354     934.211
  N      280.454    -935.924     934.014
  N      282.510    -935.919     935.024
  C      283.678    -935.232     935.136
  C      284.066    -934.072     934.510
  C      283.116    -933.467     933.603
  O      283.295    -932.440     932.945
  N      285.350    -933.729     934.844
  C      285.754    -934.695     935.663
  N      284.773    -935.635     935.867
  O      286.029    -934.573     941.928
  O      287.593    -934.473     939.899
  H      285.219    -938.867     934.859
  H      286.437    -933.697     942.087
  H      281.237    -933.801     932.901
  H      286.733    -934.775     936.115
  H      283.937    -937.456     936.330
  H      286.988    -937.030     936.159
  H      279.732    -935.535     933.431
  H      287.201    -939.104     937.412
  H      280.238    -936.760     934.542
  H      284.982    -938.491     939.088
  H      287.349    -938.241     939.813
  H      287.491    -936.743     938.859
  P      285.419    -941.109     937.840
  C      283.039    -941.695     938.726
  O      284.312    -941.122     939.003
  O      286.788    -940.898     938.637
  O      285.468    -942.338     936.987
  H      287.251    -941.747     938.731
  H      282.420    -941.626     939.596
  H      283.162    -942.723     938.456
  H      282.578    -941.166     937.918

 6  7  8  9  10  11  12  13  14  15  26  29  33  34 0
 6-311+G(2d,p)
 ****
 36  38  39  40  41 0
 6-311+G(2d,p)
 ****
 1  2  3  4  5  16  17  18  19  20  21  22  23  24  25 0
 3-21G
 ****
 27  28  30  31  32  35  37  42  43  44  45  46  47 0
 3-21G
 ****
 48  49 0
 3-21G
 ****


