%nproc=1
%NoSave
%Mem=1900MB
#P OB98/GEN NMR

erre ene a

0 1
  C     -387.709    -100.013     -94.433
  O     -388.588     -99.018     -93.944
  H     -386.677     -99.656     -94.387
  H     -387.804    -100.905     -93.807
  H     -387.968    -100.274     -95.463
  P     -388.579     -97.616     -94.728
  C     -387.349     -95.355     -94.457
  O     -387.650     -96.616     -93.878
  C     -386.192     -94.697     -93.706
  O     -386.660     -94.348     -92.376
  C     -384.947     -95.590     -93.559
  O     -383.767     -94.885     -93.967
  C     -384.859     -95.858     -92.066
  O     -383.520     -95.955     -91.597
  C     -385.593     -94.663     -91.470
  N     -384.276     -95.963     -86.716
  C     -383.572     -95.388     -87.708
  N     -384.003     -94.979     -88.918
  C     -385.330     -95.187     -89.047
  C     -386.185     -95.744     -88.108
  C     -385.606     -96.166     -86.900
  N     -386.313     -96.800     -85.907
  N     -387.478     -95.803     -88.600
  C     -387.390     -95.332     -89.830
  N     -386.112     -94.958     -90.147
  O     -390.061     -97.052     -94.486
  O     -388.264     -97.720     -96.182
  H     -383.557     -96.200     -90.654
  H     -390.505     -96.954     -95.349
  H     -382.509     -95.239     -87.511
  H     -388.206     -95.280     -90.539
  H     -384.943     -93.782     -91.395
  H     -385.378     -96.797     -91.838
  H     -385.032     -96.520     -94.125
  H     -385.933     -93.758     -94.213
  H     -388.229     -94.704     -94.398
  H     -385.798     -97.174     -85.125
  H     -387.279     -97.051     -86.086
  H     -387.087     -95.497     -95.512
  P     -383.000     -95.474     -95.253
  C     -381.338     -97.413     -95.742
  O     -382.056     -96.679     -94.757
  O     -381.974     -94.304     -95.629
  O     -383.902     -95.799     -96.396
  H     -382.112     -94.030     -96.555
  H     -380.758     -98.176     -95.266
  H     -380.688     -96.752     -96.276
  H     -382.028     -97.863     -96.425

 6  7  8  9  10  11  12  13  14  15  25  28  32  33  34  35 0
 6-311+G(2d,p)
 ****
 36  39  40 0
 6-311+G(2d,p)
 ****
 1  2  3  4  5  16  17  18  19  20  21  22  23  24 0
 3-21G
 ****
 26  27  29  30  31  37  38  41  42  43  44  45  46  47  48 0
 3-21G
 ****


