%nproc=1
%NoSave
%Mem=1900MB
#P OB98/GEN NMR

erre ene a

0 1
  C      309.671    -361.786    -165.905
  O      309.645    -360.691    -166.798
  H      309.738    -361.402    -164.885
  H      310.548    -362.409    -166.101
  H      308.761    -362.384    -165.996
  P      309.449    -360.972    -168.365
  C      311.920    -360.774    -169.046
  O      310.811    -361.645    -168.886
  C      313.130    -361.534    -169.586
  O      313.672    -362.359    -168.522
  C      312.803    -362.449    -170.773
  O      313.896    -362.410    -171.689
  C      312.715    -363.826    -170.140
  O      313.010    -364.867    -171.071
  C      313.733    -363.718    -169.006
  N      312.477    -368.500    -167.975
  C      312.779    -367.898    -169.177
  N      312.713    -368.676    -170.282
  N      313.113    -366.640    -169.294
  C      313.152    -365.983    -168.112
  C      312.873    -366.464    -166.855
  C      312.492    -367.858    -166.740
  O      312.201    -368.441    -165.704
  N      313.000    -365.480    -165.905
  C      313.348    -364.407    -166.590
  N      313.444    -364.656    -167.932
  O      308.989    -359.803    -169.175
  O      308.402    -362.178    -168.413
  H      312.380    -364.769    -171.820
  H      307.505    -361.848    -168.612
  H      312.218    -369.470    -167.942
  H      313.537    -363.426    -166.165
  H      314.758    -363.922    -169.342
  H      311.704    -363.990    -169.749
  H      312.481    -369.658    -170.265
  H      311.876    -362.168    -171.281
  H      312.953    -368.261    -171.174
  H      313.907    -360.810    -169.852
  H      312.163    -360.342    -168.067
  H      311.651    -359.963    -169.730
  P      313.792    -361.456    -172.972
  C      312.820    -363.358    -174.414
  O      312.643    -362.029    -173.934
  O      315.086    -361.134    -173.644
  O      313.113    -360.129    -172.371
  H      313.419    -359.357    -172.885
  H      311.994    -363.624    -175.041
  H      312.870    -364.033    -173.585
  H      313.728    -363.416    -174.977

 6  7  8  9  10  11  12  13  14  15  26  29  33  34 0
 6-311+G(2d,p)
 ****
 36  38  39  40  41 0
 6-311+G(2d,p)
 ****
 1  2  3  4  5  16  17  18  19  20  21  22  23  24  25 0
 3-21G
 ****
 27  28  30  31  32  35  37  42  43  44  45  46  47 0
 3-21G
 ****
 48  49 0
 3-21G
 ****


