%nproc=1
%NoSave
%Mem=1900MB
#P OB98/GEN NMR

erre ene a

0 1
  C       85.534    -204.693    -669.471
  O       86.101    -205.805    -668.796
  P       85.172    -206.569    -667.730
  C       85.600    -208.893    -668.830
  O       84.649    -207.907    -668.451
  C       85.672    -209.993    -667.760
  O       86.312    -209.484    -666.575
  C       84.320    -210.517    -667.307
  O       83.754    -211.390    -668.274
  C       84.712    -211.187    -665.998
  O       85.305    -212.471    -666.257
  C       85.775    -210.219    -665.445
  N       86.020    -208.524    -660.613
  C       86.683    -209.508    -661.259
  N       86.547    -209.913    -662.538
  C       85.614    -209.181    -663.176
  C       84.846    -208.166    -662.637
  C       85.074    -207.832    -661.296
  N       84.392    -206.832    -660.638
  N       83.976    -207.663    -663.587
  C       84.224    -208.363    -664.675
  N       85.221    -209.278    -664.480
  O       83.867    -205.653    -667.663
  O       85.797    -206.768    -666.384
  H       85.902    -212.367    -667.019
  H       83.481    -205.655    -666.763
  H       87.418    -210.047    -660.670
  H       83.724    -208.229    -665.624
  H       86.609    -210.738    -664.957
  H       83.860    -211.354    -665.323
  H       83.630    -209.684    -667.115
  H       86.287    -210.809    -668.164
  H       86.589    -208.433    -668.927
  H       84.514    -206.759    -659.641
  H       83.593    -206.415    -661.104
  H       85.317    -209.308    -669.798
  P       82.175    -211.663    -668.187
  C       81.791    -209.982    -670.093
  O       81.522    -210.300    -668.735
  O       81.916    -211.555    -666.611
  O       81.718    -212.923    -668.850
  H       82.324    -210.766    -666.228
  H       81.249    -209.069    -670.358
  H       81.458    -210.792    -670.747
  H       82.860    -209.807    -670.231
  H       86.254    -204.281    -670.146
  H       85.249    -203.950    -668.756
  H       84.672    -205.010    -670.019

 3  4  5  6  7  8  9  10  11  12  22  25  29  30  31  32 0
 6-311+G(2d,p)
 ****
 33  36  37 0
 6-311+G(2d,p)
 ****
 1  2  13  14  15  16  17  18  19  20  21  23  24  26 0
 3-21G
 ****
 27  28  34  35  38  39  40  41  42  43  44  45  46  47  48 0
 3-21G
 ****


