%nproc=1
%NoSave
%Mem=1900MB
#P OB98/GEN NMR

erre ene a

0 1
  C     -160.024    -271.161     134.334
  O     -160.042    -271.961     135.519
  P     -158.733    -272.852     135.810
  C     -158.817    -272.806     138.411
  O     -158.952    -273.577     137.223
  C     -159.434    -273.538     139.602
  O     -160.852    -273.709     139.429
  C     -158.888    -274.942     139.823
  O     -157.635    -274.920     140.491
  C     -159.965    -275.539     140.719
  O     -159.736    -275.147     142.086
  C     -161.246    -274.883     140.179
  N     -165.613    -277.381     139.562
  C     -165.187    -276.587     140.608
  N     -166.065    -276.410     141.621
  N     -164.015    -276.015     140.656
  C     -163.256    -276.255     139.560
  C     -163.562    -277.023     138.462
  C     -164.855    -277.677     138.435
  O     -165.266    -278.418     137.550
  N     -162.542    -277.024     137.547
  C     -161.630    -276.231     138.075
  N     -162.011    -275.752     139.305
  O     -157.617    -271.748     136.131
  O     -158.340    -273.736     134.677
  H     -159.715    -274.170     142.106
  H     -156.732    -272.097     135.912
  H     -166.525    -277.804     139.581
  H     -160.687    -275.971     137.611
  H     -161.904    -274.544     140.988
  H     -159.973    -276.633     140.702
  H     -167.011    -276.760     141.617
  H     -158.841    -275.498     138.877
  H     -165.784    -275.800     142.381
  H     -159.264    -272.926     140.500
  H     -159.311    -271.841     138.284
  H     -157.757    -272.602     138.583
  P     -156.463    -275.826     139.873
  C     -154.978    -273.892     138.988
  O     -155.139    -274.922     139.941
  O     -156.821    -275.875     138.314
  O     -156.358    -277.191     140.466
  H     -156.492    -276.700     137.917
  H     -155.911    -273.341     138.834
  H     -154.642    -274.319     138.038
  H     -154.215    -273.195     139.351
  H     -160.944    -270.620     134.255
  H     -159.907    -271.793     133.479
  H     -159.208    -270.471     134.382

 3  4  5  6  7  8  9  10  11  12  23  26  30  31  33  0
 6-311+G(2d,p)
 ****
 35  36  37  38 0
 6-311+G(2d,p)
 ****
 1  2  13  14  15  16  17  18  19  20  21  22  24  25  27  28  29 0
 3-21G
 ****
 32  34  39  40  41  42  43  44  45  46  47  48  49 0
 3-21G
 ****


