%nproc=1
%NoSave
%Mem=1900MB
#P OB98/GEN NMR

erre ene a

0 1
  C      -58.445      38.321     -18.375
  O      -58.316      39.718     -18.199
  H      -59.028      37.892     -17.557
  H      -58.967      38.132     -19.317
  H      -57.459      37.852     -18.418
  P      -57.586      40.199     -16.853
  C      -55.244      40.173     -17.954
  O      -56.238      40.950     -17.302
  C      -54.286      41.082     -18.718
  O      -55.073      42.080     -19.421
  C      -53.271      41.817     -17.826
  O      -51.943      41.656     -18.338
  C      -53.662      43.278     -17.945
  O      -52.545      44.158     -17.898
  C      -54.375      43.325     -19.291
  N      -54.708      48.408     -19.104
  C      -53.664      47.591     -19.360
  N      -53.661      46.249     -19.491
  C      -54.905      45.757     -19.362
  C      -56.070      46.467     -19.124
  C      -55.936      47.857     -18.971
  N      -56.992      48.684     -18.655
  N      -57.157      45.616     -19.046
  C      -56.649      44.409     -19.192
  N      -55.291      44.443     -19.371
  O      -57.060      38.827     -16.213
  O      -58.461      40.945     -15.905
  H      -51.980      43.951     -18.664
  H      -57.479      38.707     -15.339
  H      -52.699      48.079     -19.468
  H      -57.206      43.482     -19.132
  H      -53.666      43.401     -20.124
  H      -54.341      43.534     -17.123
  H      -53.303      41.478     -16.786
  H      -53.767      40.487     -19.479
  H      -55.722      39.484     -18.660
  H      -56.788      49.648     -18.449
  H      -57.887      48.264     -18.446
  H      -54.700      39.587     -17.205
  P      -51.085      40.445     -17.716
  C      -51.275      38.809     -19.726
  O      -50.424      39.628     -18.933
  O      -52.210      39.456     -17.150
  O      -50.139      40.866     -16.643
  H      -52.059      39.291     -16.199
  H      -50.699      38.331     -20.491
  H      -52.034      39.414     -20.176
  H      -51.732      38.065     -19.107

 6  7  8  9  10  11  12  13  14  15  25  28  32  33  34  35 0
 6-311+G(2d,p)
 ****
 36  39  40 0
 6-311+G(2d,p)
 ****
 1  2  3  4  5  16  17  18  19  20  21  22  23  24 0
 3-21G
 ****
 26  27  29  30  31  37  38  41  42  43  44  45  46  47  48 0
 3-21G
 ****


