%nproc=1
%NoSave
%Mem=1900MB
#P OB98/GEN NMR

erre ene a

0 1
  C      686.620     -86.466     871.045
  O      685.426     -86.339     871.786
  H      686.466     -86.029     870.053
  H      686.886     -87.525     870.926
  H      687.441     -85.934     871.541
  P      685.452     -86.912     873.292
  C      686.458     -89.102     874.249
  O      685.762     -88.478     873.177
  C      685.573     -90.165     874.896
  O      685.324     -91.236     873.956
  C      686.179     -90.824     876.113
  O      686.087     -90.016     877.275
  C      685.359     -92.106     876.206
  O      684.117     -91.887     876.881
  C      685.120     -92.452     874.721
  N      686.494     -97.332     875.354
  C      685.504     -96.592     875.935
  N      685.199     -95.293     875.692
  C      686.013     -94.773     874.751
  C      687.057     -95.406     874.095
  C      687.283     -96.757     874.434
  N      688.304     -97.510     873.878
  N      687.690     -94.550     873.225
  C      687.037     -93.394     873.348
  N      686.013     -93.494     874.249
  O      683.909     -86.856     873.719
  O      686.319     -86.148     874.238
  H      683.684     -92.765     876.949
  H      683.753     -86.056     874.275
  H      684.886     -97.102     876.662
  H      687.272     -92.484     872.816
  H      684.092     -92.784     874.538
  H      685.907     -92.879     876.749
  H      687.226     -91.092     875.921
  H      684.600     -89.711     875.144
  H      686.729     -88.352     874.998
  H      687.372     -89.563     873.855
  H      688.451     -98.444     874.218
  H      688.961     -97.056     873.263
  P      686.981     -90.402     878.547
  C      686.916     -92.244     880.396
  O      686.346     -91.707     879.204
  O      686.685     -89.251     879.602
  O      688.440     -90.534     878.245
  H      687.507     -89.038     880.115
  H      686.367     -93.113     880.694
  H      686.872     -91.511     881.174
  H      687.936     -92.511     880.215

 6  7  8  9  10  11  12  13  14  15  25  28  32  33  34  35 0
 6-311+G(2d,p)
 ****
 36  37  40 0
 6-311+G(2d,p)
 ****
 1  2  3  4  5  16  17  18  19  20  21  22  23  24 0
 3-21G
 ****
 26  27  29  30  31  38  39 41  42  43  44  45  46  47  48 0
 3-21G
 ****


