%nproc=1
%NoSave
%Mem=1900MB
#P OB98/GEN NMR

erre ene a

0 1
  C     -297.537    -146.892    -122.261
  O     -296.900    -145.649    -122.022
  P     -295.313    -145.553    -122.223
  C     -295.267    -143.003    -122.855
  O     -294.908    -144.024    -121.943
  C     -295.445    -141.673    -122.118
  O     -296.605    -141.768    -121.246
  C     -294.250    -141.265    -121.245
  O     -294.149    -139.835    -121.307
  C     -294.677    -141.710    -119.861
  O     -293.987    -141.025    -118.827
  C     -296.180    -141.416    -119.914
  N     -296.956    -142.154    -118.919
  C     -297.451    -141.449    -117.828
  O     -297.257    -140.248    -117.640
  N     -298.170    -142.184    -116.918
  C     -298.377    -143.534    -116.957
  O     -299.011    -144.144    -116.109
  C     -297.789    -144.233    -118.109
  C     -297.128    -143.522    -119.025
  O     -295.191    -145.703    -123.811
  O     -294.543    -146.557    -121.435
  H     -295.926    -145.283    -124.288
  H     -294.157    -140.071    -118.929
  H     -298.570    -141.686    -116.136
  H     -297.918    -145.308    -118.169
  H     -296.684    -144.017    -119.881
  H     -296.358    -140.340    -119.794
  H     -294.483    -142.783    -119.744
  H     -293.313    -141.718    -121.580
  H     -295.659    -140.894    -122.860
  H     -296.208    -143.268    -123.346
  H     -294.496    -142.921    -123.628
  P     -292.678    -139.177    -121.308
  C     -293.157    -137.068    -122.779
  O     -292.862    -137.601    -121.511
  O     -292.154    -139.664    -122.743
  O     -291.793    -139.615    -120.189
  H     -292.795    -139.503    -123.456
  H     -293.565    -136.061    -122.653
  H     -293.893    -137.677    -123.310
  H     -292.241    -137.002    -123.374
  H     -298.588    -146.794    -122.085
  H     -297.133    -147.632    -121.603
  H     -297.371    -147.188    -123.276

 3  4  5  6  7  8  9  10  11  12  13  24  28  29  30  31  32 0
 6-311+G(2d,p)
 ****
 33  34 0
 6-311+G(2d,p)
 ****
 1  2  14  15  16  17  18  19  20  21  22  23  25  26  27 0
 3-21G
 ****
 35  36  37  38  39  40  41  42  43  44  45 0
 3-21G
 ****


