%nproc=1
%NoSave
%Mem=1900MB
#P OB98/GEN NMR

erre ene a

0 1
  C       48.409    -322.310    -209.284
  O       48.513    -320.879    -209.356
  P       48.503    -320.155    -210.796
  C       47.189    -318.126    -211.803
  O       47.753    -318.744    -210.652
  C       46.254    -316.983    -211.394
  O       44.977    -317.514    -210.958
  C       46.752    -316.146    -210.218
  O       47.770    -315.242    -210.610
  C       45.469    -315.467    -209.771
  O       45.191    -314.306    -210.572
  C       44.418    -316.568    -210.021
  N       43.978    -317.229    -208.791
  C       42.962    -316.600    -208.082
  O       42.477    -315.517    -208.402
  N       42.534    -317.253    -206.948
  C       43.067    -318.412    -206.435
  O       42.656    -318.926    -205.411
  C       44.198    -318.982    -207.196
  C       44.595    -318.375    -208.316
  O       47.429    -321.031    -211.599
  O       49.814    -320.134    -211.515
  H       44.269    -314.043    -210.356
  H       47.630    -320.998    -212.546
  H       41.788    -316.836    -206.435
  H       44.660    -319.879    -206.808
  H       45.428    -318.787    -208.884
  H       43.529    -316.143    -210.521
  H       45.511    -315.133    -208.721
  H       47.112    -316.803    -209.425
  H       46.083    -316.354    -212.277
  H       46.621    -318.874    -212.373
  H       48.002    -317.742    -212.430
  P       49.262    -315.582    -210.124
  C       51.501    -314.330    -210.651
  O       50.110    -314.247    -210.412
  O       49.724    -316.615    -211.253
  O       49.322    -316.107    -208.726
  H       49.332    -316.412    -212.126
  H       51.768    -315.251    -211.162
  H       52.036    -314.278    -209.683
  H       51.803    -313.468    -211.269
  H       48.432    -322.618    -208.260
  H       49.229    -322.754    -209.808
  H       47.489    -322.624    -209.731

 3  4  5  6  7  8  9  10  11  12  13  23  28  29  30  31  32 0
 6-311+G(2d,p)
 ****
 33  34 0
 6-311+G(2d,p)
 ****
 1  2  14  15  16  17  18  19  20  21  22  24  25  26 0
 3-21G
 ****
 27  35  36  37  38  39  40  41  42  43  44  45 0
 3-21G
 ****


