%nproc=1
%NoSave
%Mem=1900MB
#P OB98/GEN NMR

erre ene a

0 1
  C      743.615     548.195      84.790
  O      742.349     547.531      84.880
  P      742.138     546.444      86.043
  C      740.507     547.692      87.650
  O      740.682     546.666      86.676
  C      739.053     548.156      87.679
  O      738.697     548.903      86.492
  C      738.049     547.011      87.764
  O      737.871     546.562      89.106
  C      736.781     547.699      87.282
  O      736.204     548.470      88.362
  C      737.312     548.624      86.184
  N      734.662     548.616      81.867
  C      734.468     549.353      83.032
  N      733.435     550.227      83.032
  N      735.237     549.258      84.082
  C      736.248     548.353      83.927
  C      736.523     547.570      82.830
  C      735.657     547.683      81.678
  O      735.767     547.039      80.629
  N      737.625     546.787      83.054
  C      738.025     547.102      84.273
  N      737.213     548.049      84.851
  O      743.109     546.980      87.190
  O      742.465     545.045      85.639
  H      735.899     547.832      89.028
  H      743.420     546.233      87.752
  H      734.037     548.727      81.091
  H      738.900     546.694      84.781
  H      736.780     549.594      86.155
  H      736.013     546.996      86.963
  H      732.831     550.393      82.237
  H      738.308     546.190      87.082
  H      733.303     550.794      83.871
  H      738.917     548.820      88.549
  H      741.156     548.536      87.423
  H      740.842     547.316      88.626
  P      737.986     544.974      89.387
  C      739.245     545.562      91.575
  O      738.204     544.825      90.971
  O      739.417     544.617      88.757
  O      736.895     544.155      88.788
  H      739.409     543.691      88.419
  H      739.142     545.474      92.671
  H      739.192     546.630      91.319
  H      740.220     545.156      91.280
  H      743.599     548.884      83.971
  H      744.387     547.471      84.632
  H      743.805     548.726      85.699

 3  4  5  6  7  8  9  10  11  12  23  26  30  31 0
 6-311+G(2d,p)
 ****
 33  35  36  37  38 0
 6-311+G(2d,p)
 ****
 1  2  13  14  15  16  17  18  19  20  21  22  24  25 0
 3-21G
 ****
 27  28  29  32  34  39  40  41  42  43  44  45  46  47  48  49 0
 3-21G
 ****


