%nproc=1
%NoSave
%Mem=1900MB
#P OB98/GEN NMR

erre ene a

0 1
  C     -126.010    -266.689    -125.249
  O     -126.825    -267.835    -125.530
  P     -127.963    -268.225    -124.472
  C     -130.008    -269.801    -124.785
  O     -128.606    -269.620    -124.926
  C     -130.373    -271.279    -124.947
  O     -130.187    -271.731    -126.308
  C     -129.534    -272.213    -124.082
  O     -130.037    -272.292    -122.753
  C     -129.746    -273.541    -124.793
  O     -131.019    -274.104    -124.413
  C     -129.769    -273.118    -126.267
  N     -127.227    -275.440    -129.976
  C     -128.558    -275.535    -129.612
  N     -129.324    -276.366    -130.348
  N     -129.086    -274.876    -128.615
  C     -128.206    -274.070    -127.976
  C     -126.866    -273.890    -128.242
  C     -126.288    -274.638    -129.338
  O     -125.115    -274.604    -129.696
  N     -126.298    -272.996    -127.373
  C     -127.297    -272.616    -126.596
  N     -128.470    -273.254    -126.912
  O     -129.128    -267.175    -124.797
  O     -127.529    -268.145    -123.044
  H     -130.929    -274.397    -123.486
  H     -129.658    -267.011    -123.994
  H     -126.871    -275.975    -130.748
  H     -127.220    -271.890    -125.799
  H     -130.486    -273.697    -126.860
  H     -128.983    -274.280    -124.532
  H     -128.993    -276.865    -131.162
  H     -128.475    -271.935    -124.106
  H     -130.309    -276.423    -130.120
  H     -131.432    -271.400    -124.683
  H     -130.545    -269.204    -125.527
  H     -130.319    -269.416    -123.811
  P     -129.095    -271.773    -121.565
  C     -129.649    -269.722    -120.074
  O     -130.052    -270.990    -120.550
  O     -128.242    -270.614    -122.269
  O     -128.218    -272.819    -120.961
  H     -127.357    -270.560    -121.865
  H     -130.484    -269.270    -119.533
  H     -129.371    -269.065    -120.900
  H     -128.804    -269.831    -119.385
  H     -125.300    -266.554    -126.038
  H     -125.492    -266.838    -124.325
  H     -126.630    -265.820    -125.174

 3  4  5  6  7  8  9  10  11  12  23  26  30  31 0
 6-311+G(2d,p)
 ****
 33  35  36  37  38 0
 6-311+G(2d,p)
 ****
 1  2  13  14  15  16  17  18  19  20  21  22  24  25 0
 3-21G
 ****
 27  28  29  32  34  39  40  41  42  43  44  45  46  47  48  49 0
 3-21G
 ****


