%nproc=1
%NoSave
%Mem=1900MB
#P OB98/GEN NMR

erre ene a

0 1
  C     -209.015     520.477    -486.671
  O     -210.225     520.991    -487.193
  H     -208.602     521.203    -485.962
  H     -208.293     520.315    -487.475
  H     -209.204     519.536    -486.148
  P     -210.937     520.117    -488.337
  C     -211.493     520.755    -490.805
  O     -210.651     520.950    -489.681
  C     -210.906     521.474    -492.022
  O     -210.727     522.877    -491.742
  C     -209.534     520.963    -492.442
  O     -209.591     519.751    -493.176
  C     -209.061     522.120    -493.300
  O     -209.725     522.074    -494.577
  C     -209.549     523.328    -492.464
  N     -208.535     523.827    -491.533
  C     -207.424     524.470    -492.091
  O     -207.318     524.583    -493.312
  N     -206.435     524.934    -491.259
  C     -206.545     524.786    -489.972
  N     -205.534     525.254    -489.199
  C     -207.710     524.131    -489.338
  C     -208.647     523.687    -490.161
  O     -212.501     520.375    -488.092
  O     -210.554     518.677    -488.389
  H     -210.644     521.786    -494.404
  H     -213.026     519.975    -488.829
  H     -207.756     524.023    -488.263
  H     -209.535     523.191    -489.770
  H     -209.855     524.155    -493.116
  H     -207.988     522.103    -493.491
  H     -208.857     520.866    -491.584
  H     -211.632     521.391    -492.846
  H     -204.720     525.640    -489.662
  H     -212.483     521.161    -490.574
  H     -205.447     525.021    -488.216
  H     -211.585     519.686    -491.024
  P     -208.208     519.136    -493.715
  C     -206.640     519.587    -495.736
  O     -207.766     520.021    -494.976
  O     -208.669     517.752    -494.382
  O     -207.157     518.933    -492.672
  H     -208.013     517.046    -494.207
  H     -206.466     520.272    -496.539
  H     -206.832     518.612    -496.134
  H     -205.776     519.551    -495.105

 6  7  8  9  10  11  12  13  14  15  16  26  30  31  32  33  35 0
 6-311+G(2d,p)
 ****
 37  38 0
 6-311+G(2d,p)
 ****
 1  2  3  4  5  17  18  19  20  21  22  23  24  25 0
 3-21G
 ****
 27  28  29  34  36  39  40  41  42  43  44  45  46 0
 3-21G
 ****


