%nproc=1
%NoSave
%Mem=1900MB
#P OB98/GEN NMR

erre ene a

0 1
  C      348.665    -897.490     111.728
  O      348.195    -896.950     110.497
  P      347.397    -895.570     110.344
  C      345.018    -896.480     109.691
  O      345.847    -895.860     110.656
  C      343.630    -895.840     109.649
  O      343.774    -894.410     109.289
  C      342.707    -896.470     108.588
  O      341.363    -896.640     109.041
  C      342.917    -895.560     107.373
  O      341.877    -895.670     106.430
  C      343.112    -894.190     108.009
  N      343.302    -891.500     103.694
  C      342.371    -892.440     104.081
  N      341.370    -892.710     103.224
  N      342.427    -893.070     105.236
  C      343.520    -892.750     105.978
  C      344.522    -891.840     105.672
  C      344.405    -891.110     104.434
  O      345.192    -890.260     104.043
  N      345.470    -891.790     106.687
  C      345.062    -892.680     107.557
  N      343.868    -893.260     107.190
  O      347.706    -894.770     109.126
  O      347.870    -894.720     111.628
  H      342.118    -895.120     105.650
  H      347.851    -893.780     111.347
  H      343.200    -891.000     102.801
  H      345.559    -892.900     108.490
  H      342.151    -893.700     108.229
  H      343.837    -895.880     106.877
  H      341.353    -892.350     102.279
  H      343.041    -897.490     108.348
  H      340.838    -893.550     103.417
  H      343.182    -895.850     110.619
  H      344.919    -897.520     109.983
  H      345.497    -896.460     108.696
  P      340.671    -897.990     109.584
  C      339.623    -899.070     107.497
  O      340.711    -899.080     108.439
  O      339.129    -897.610     109.691
  O      341.199    -898.460     110.907
  H      338.823    -897.700     110.628
  H      339.634    -900.000     106.945
  H      339.743    -898.250     106.811
  H      338.681    -898.990     108.033
  H      349.163    -898.419     111.543
  H      347.836    -897.654     112.385
  H      349.348    -896.803     112.181

 3  4  5  6  7  8  9  10  11  12  23  26  30  31 0
 6-311+G(2d,p)
 ****
 33  35  36  37  38 0
 6-311+G(2d,p)
 ****
 1  2  13  14  15  16  17  18  19  20  21  22  24  25 0
 3-21G
 ****
 27  28  29  32  34  39  40  41  42  43  44  45  46  47  48  49 0
 3-21G
 ****


