%nproc=1
%NoSave
%Mem=1900MB
#P OB98/GEN NMR

erre ene a

0 1
  C      115.376     160.542    1138.904
  O      114.422     161.577    1138.696
  P      114.868     163.010    1138.139
  C      114.585     162.378    1135.665
  O      115.508     162.722    1136.698
  C      114.818     163.259    1134.445
  O      114.343     164.595    1134.752
  C      116.273     163.450    1134.016
  O      116.786     162.419    1133.188
  C      116.174     164.735    1133.212
  O      115.648     164.450    1131.899
  C      115.158     165.555    1134.021
  N      115.617     170.442    1135.444
  C      114.882     169.842    1134.483
  N      114.820     168.541    1134.147
  C      115.615     167.813    1134.969
  C      116.421     168.280    1135.983
  C      116.409     169.669    1136.216
  N      117.149     170.265    1137.215
  N      117.112     167.241    1136.583
  C      116.701     166.161    1135.943
  N      115.789     166.460    1134.963
  O      115.711     163.801    1139.079
  O      113.493     163.744    1137.786
  H      115.419     165.305    1131.494
  H      113.631     164.702    1137.692
  H      114.241     170.505    1133.893
  H      117.036     165.152    1136.142
  H      114.484     166.135    1133.384
  H      117.139     165.227    1133.066
  H      116.928     163.617    1134.884
  H      114.223     162.877    1133.612
  H      113.573     162.536    1136.043
  H      116.987     171.244    1137.384
  H      117.613     169.673    1137.887
  H      114.702     161.322    1135.409
  P      118.379     162.235    1133.128
  C      118.537     160.298    1134.882
  O      118.804     161.646    1134.559
  O      119.125     163.455    1132.700
  O      118.569     160.989    1132.143
  H      118.242     160.135    1132.486
  H      119.045     160.058    1135.821
  H      118.919     159.632    1134.107
  H      117.466     160.140    1135.003
  H      114.881     159.670    1139.277
  H      116.107     160.868    1139.614
  H      115.858     160.310    1137.977

 3  4  5  6  7  8  9  10  11  12  22  25  29  30  31  32 0
 6-311+G(2d,p)
 ****
 33  36  37 0
 6-311+G(2d,p)
 ****
 1  2  13  14  15  16  17  18  19  20  21  23  24  26 0
 3-21G
 ****
 27  28  34  35  38  39  40  41  42  43  44  45  46  47  48 0
 3-21G
 ****


