%nproc=1
%NoSave
%Mem=1900MB
#P OB98/GEN NMR

erre ene a

0 1
  C     -891.600     443.995    1085.918
  O     -892.670     444.911    1086.084
  H     -891.320     443.601    1086.884
  H     -890.740     444.500    1085.461
  H     -891.940     443.164    1085.269
  P     -893.180     445.699    1084.794
  C     -894.680     443.855    1083.721
  O     -894.620     445.098    1084.411
  C     -895.890     443.053    1084.211
  O     -895.680     442.649    1085.611
  C     -897.190     443.814    1084.212
  O     -897.770     443.909    1082.928
  C     -898.020     442.992    1085.170
  O     -898.650     441.883    1084.510
  C     -896.980     442.517    1086.206
  N     -897.080     443.243    1087.464
  C     -897.350     442.459    1088.596
  O     -897.480     441.238    1088.553
  N     -897.480     443.168    1089.753
  C     -897.430     444.514    1089.913
  O     -897.650     445.076    1090.993
  C     -897.190     445.284    1088.677
  C     -897.010     444.616    1087.525
  O     -892.220     445.136    1083.618
  O     -893.130     447.188    1084.885
  H     -891.570     445.819    1083.382
  H     -899.090     441.374    1085.205
  H     -897.670     442.620    1090.602
  H     -897.140     446.367    1088.769
  H     -896.830     445.164    1086.609
  H     -897.130     441.438    1086.416
  H     -898.820     443.597    1085.607
  H     -897.040     444.827    1084.646
  H     -895.970     442.137    1083.624
  H     -893.750     443.274    1083.938
  H     -894.740     444.031    1082.636
  P     -898.530     445.272    1082.538
  C     -896.680     446.761    1081.363
  O     -897.760     445.861    1081.235
  O     -898.050     446.250    1083.728
  O     -900.000     445.115    1082.403
  H     -897.180     445.975    1084.098
  H     -896.318     447.024    1080.391
  H     -895.894     446.298    1081.923
  H     -897.009     447.643    1081.872

 6  7  8  9  10  11  12  13  14  15  16  27  31  32  33  34  35 0
 6-311+G(2d,p)
 ****
 36  37 0
 6-311+G(2d,p)
 ****
 1  2  3  4  5  17  18  19  20  21  22  23  24  25 0
 3-21G
 ****
 26  28  29  30  38  39  40  41  42  43  44  45 0
 3-21G
 ****


