%nproc=1
%NoSave
%Mem=1900MB
#P OB98/GEN NMR

erre ene a

0 1
  C      327.980    -863.999    1045.759
  O      328.325    -865.366    1045.836
  H      327.472    -863.715    1046.686
  H      327.300    -863.842    1044.918
  H      328.872    -863.373    1045.632
  P      329.425    -865.915    1044.794
  C      331.301    -865.828    1046.599
  O      330.853    -865.388    1045.322
  C      332.341    -866.955    1046.469
  O      333.548    -866.356    1045.901
  C      332.727    -867.601    1047.797
  O      332.953    -869.006    1047.564
  C      334.057    -866.952    1048.127
  O      334.840    -867.755    1049.013
  C      334.652    -866.777    1046.741
  N      339.595    -866.326    1047.514
  C      338.810    -867.464    1047.385
  N      339.391    -868.651    1047.567
  N      337.520    -867.421    1047.130
  C      337.036    -866.153    1046.962
  C      337.716    -864.956    1047.046
  C      339.132    -865.006    1047.360
  O      339.887    -864.061    1047.487
  N      336.866    -863.902    1046.855
  C      335.675    -864.440    1046.677
  N      335.737    -865.820    1046.734
  O      329.143    -864.993    1043.506
  O      329.354    -867.363    1044.481
  H      335.729    -867.352    1049.092
  H      328.545    -865.475    1042.883
  H      340.572    -866.412    1047.718
  H      334.758    -863.907    1046.546
  H      335.052    -867.709    1046.329
  H      333.868    -865.982    1048.611
  H      340.378    -868.778    1047.751
  H      331.970    -867.493    1048.594
  H      338.838    -869.485    1047.463
  H      331.979    -867.674    1045.736
  H      330.427    -866.226    1047.154
  H      331.697    -864.976    1047.149
  P      331.674    -869.992    1047.498
  C      331.490    -870.352    1044.916
  O      330.923    -869.756    1046.092
  O      330.679    -869.354    1048.567
  O      332.006    -871.411    1047.824
  H      330.179    -870.045    1049.001
  H      330.886    -870.110    1044.067
  H      331.526    -871.415    1045.037
  H      332.481    -869.976    1044.768

 6  7  8  9  10  11  12  13  14  15  26  29  33  34 0
 6-311+G(2d,p)
 ****
 36  38  39  40  41 0
 6-311+G(2d,p)
 ****
 1  2  3  4  5  16  17  18  19  20  21  22  23  24  25 0
 3-21G
 ****
 27  28  30  31  32  35  37  42  43  44  45  46  47 0
 3-21G
 ****
 48  49 0
 3-21G
 ****


