%nproc=1
%NoSave
%Mem=1900MB
#P OB98/GEN NMR

erre ene a

0 1
  C     -913.691     754.426     407.877
  O     -913.216     755.744     408.020
  P     -913.835     756.978     407.247
  C     -915.589     757.620     409.083
  O     -915.347     757.208     407.735
  C     -916.949     758.327     409.217
  O     -917.958     757.510     408.581
  C     -917.356     758.491     410.710
  O     -917.927     759.765     410.987
  C     -918.213     757.255     410.955
  O     -919.073     757.394     412.083
  C     -918.885     757.060     409.592
  N     -922.194     753.330     410.592
  C     -922.283     754.664     410.923
  N     -923.235     755.019     411.807
  N     -921.438     755.560     410.487
  C     -920.421     755.060     409.732
  C     -920.269     753.749     409.323
  C     -921.198     752.769     409.787
  O     -921.128     751.565     409.592
  N     -919.101     753.601     408.606
  C     -918.550     754.802     408.601
  N     -919.301     755.703     409.299
  O     -913.563     757.062     405.782
  O     -913.070     758.222     407.961
  H     -919.613     756.582     412.112
  H     -912.934     758.897     407.276
  H     -922.837     752.666     411.037
  H     -917.619     755.060     408.140
  H     -919.800     757.688     409.508
  H     -917.523     756.432     411.161
  H     -923.789     754.309     412.262
  H     -916.471     758.463     411.339
  H     -923.176     755.907     412.264
  H     -916.903     759.295     408.674
  H     -914.781     758.300     409.346
  H     -915.529     756.778     409.756
  P     -917.983     760.543     412.372
  C     -915.825     761.805     411.758
  O     -916.484     761.031     412.744
  O     -918.266     759.423     413.476
  O     -919.023     761.614     412.467
  H     -918.870     759.759     414.163
  H     -914.750     761.835     411.994
  H     -916.212     762.812     411.739
  H     -915.960     761.352     410.769
  H     -913.116     753.770     408.497
  H     -913.598     754.122     406.855
  H     -914.719     754.384     408.170

 3  4  5  6  7  8  9  10  11  12  23  26  30  31 0
 6-311+G(2d,p)
 ****
 33  35  36  37  38 0
 6-311+G(2d,p)
 ****
 1  2  13  14  15  16  17  18  19  20  21  22  24  25 0
 3-21G
 ****
 27  28  29  32  34  39  40  41  42  43  44  45  46  47  48  49 0
 3-21G
 ****


