%nproc=1
%NoSave
%Mem=1900MB
#P OB98/GEN NMR

erre ene a

0 1
  C      532.213      26.158     679.345
  O      531.136      25.787     678.487
  P      530.297      26.951     677.771
  C      528.319      26.837     679.535
  O      528.756      26.843     678.193
  C      526.882      26.310     679.603
  O      526.004      27.158     678.832
  C      526.724      24.895     679.049
  O      526.994      23.910     680.028
  C      525.291      24.905     678.566
  O      524.392      24.744     679.672
  C      525.183      26.324     677.967
  N      525.601      26.530     676.566
  C      525.066      27.578     675.823
  O      524.231      28.368     676.255
  N      525.520      27.693     674.536
  C      526.563      27.010     673.983
  O      526.968      27.208     672.839
  C      527.201      26.024     674.855
  C      526.693      25.815     676.077
  O      530.297      26.517     676.226
  O      530.846      28.325     677.968
  H      524.644      23.921     680.134
  H      530.783      27.175     675.696
  H      525.089      28.410     673.965
  H      528.053      25.486     674.466
  H      527.159      25.084     676.725
  H      524.150      26.689     678.043
  H      525.098      24.061     677.892
  H      527.379      24.756     678.176
  H      526.552      26.336     680.646
  H      528.375      27.841     679.964
  H      528.989      26.203     680.133
  P      528.434      23.205     680.080
  C      527.328      20.939     679.560
  O      528.142      21.669     680.468
  O      529.471      23.883     680.904
  O      528.853      23.096     678.539
  H      529.436      23.850     678.283
  H      527.337      19.887     679.847
  H      527.712      21.040     678.544
  H      526.294      21.304     679.617
  H      532.671      25.277     679.744
  H      531.839      26.760     680.147
  H      532.937      26.715     678.788

 3  4  5  6  7  8  9  10  11  12  13  23  28  29  30  31  32 0
 6-311+G(2d,p)
 ****
 33  34 0
 6-311+G(2d,p)
 ****
 1  2  14  15  16  17  18  19  20  21  22  24  25  26  27 0
 3-21G
 ****
 35  36  37  38  39  40  41  42  43  44  45 0
 3-21G
 ****


