%nproc=1
%NoSave
%Mem=1900MB
#P OB98/GEN NMR

erre ene a

0 1
  C     -378.406    -131.426    -601.963
  O     -377.579    -130.846    -602.950
  H     -379.390    -131.619    -602.396
  H     -378.523    -130.743    -601.116
  H     -377.979    -132.371    -601.621
  P     -376.097    -130.428    -602.501
  C     -374.627    -132.335    -603.476
  O     -375.268    -131.789    -602.330
  C     -373.334    -133.030    -603.056
  O     -372.317    -132.045    -602.764
  C     -373.461    -133.868    -601.791
  O     -374.079    -135.118    -602.035
  C     -372.004    -133.998    -601.385
  O     -371.355    -135.069    -602.087
  C     -371.418    -132.627    -601.801
  N     -371.201    -131.750    -600.655
  C     -369.978    -131.900    -600.008
  O     -369.121    -132.710    -600.362
  N     -369.783    -131.105    -598.910
  C     -370.689    -130.228    -598.386
  O     -370.480    -129.599    -597.355
  C     -371.960    -130.104    -599.121
  C     -372.159    -130.869    -600.199
  O     -376.307    -129.917    -600.996
  O     -375.443    -129.398    -603.360
  H     -376.295    -128.944    -600.972
  H     -371.734    -135.897    -601.735
  H     -368.906    -131.203    -598.422
  H     -372.697    -129.414    -598.736
  H     -373.096    -130.811    -600.745
  H     -370.455    -132.766    -602.308
  H     -371.902    -134.208    -600.323
  H     -373.997    -133.304    -601.017
  H     -372.986    -133.650    -603.898
  H     -374.386    -131.529    -604.178
  H     -375.309    -133.038    -603.964
  P     -375.121    -135.681    -600.956
  C     -377.138    -134.573    -602.226
  O     -376.410    -134.722    -601.023
  O     -374.401    -135.272    -599.586
  O     -375.416    -137.135    -601.106
  H     -373.934    -134.422    -599.645
  H     -377.954    -133.899    -602.068
  H     -377.517    -135.525    -602.534
  H     -376.494    -134.182    -602.986

 6  7  8  9  10  11  12  13  14  15  16  27  31  32  33  34  35 0
 6-311+G(2d,p)
 ****
 36  37 0
 6-311+G(2d,p)
 ****
 1  2  3  4  5  17  18  19  20  21  22  23  24  25 0
 3-21G
 ****
 26  28  29  30  38  39  40  41  42  43  44  45 0
 3-21G
 ****


