%nproc=1
%NoSave
%Mem=1900MB
#P OB98/GEN NMR

erre ene a

0 1
  C     -272.060     518.021    -220.512
  O     -273.115     517.100    -220.769
  P     -273.581     516.145    -219.559
  C     -276.059     516.937    -219.161
  O     -274.697     516.975    -218.759
  C     -276.811     518.150    -218.598
  O     -276.301     519.360    -219.187
  C     -278.308     518.159    -218.876
  O     -279.009     517.264    -218.030
  C     -278.639     519.629    -218.677
  O     -278.774     519.919    -217.268
  C     -277.381     520.315    -219.242
  N     -277.570     520.841    -220.594
  C     -277.741     522.218    -220.710
  O     -277.746     522.973    -219.746
  N     -277.940     522.682    -221.984
  C     -278.039     521.928    -223.111
  O     -278.265     522.397    -224.227
  C     -277.875     520.476    -222.933
  C     -277.649     520.004    -221.694
  O     -272.288     516.203    -218.625
  O     -273.983     514.783    -220.013
  H     -271.788     517.038    -218.738
  H     -278.821     520.899    -217.195
  H     -278.047     523.684    -222.096
  H     -277.962     519.841    -223.795
  H     -277.541     518.943    -221.539
  H     -277.077     521.156    -218.589
  H     -279.578     519.925    -219.162
  H     -278.489     517.882    -219.930
  H     -276.623     518.197    -217.512
  H     -276.513     516.015    -218.778
  H     -276.112     516.932    -220.254
  P     -279.214     515.761    -218.569
  C     -277.739     514.489    -216.825
  O     -277.892     514.952    -218.149
  O     -279.057     515.979    -220.146
  O     -280.508     515.150    -218.158
  H     -278.332     516.590    -220.379
  H     -276.994     513.684    -216.822
  H     -278.673     514.096    -216.423
  H     -277.379     515.307    -216.187
  H     -271.856     518.586    -221.397
  H     -271.181     517.484    -220.221
  H     -272.350     518.685    -219.724

 3  4  5  6  7  8  9  10  11  12  13  24  28  29  30  31  32 0
 6-311+G(2d,p)
 ****
 33  34 0
 6-311+G(2d,p)
 ****
 1  2  14  15  16  17  18  19  20  21  22  23  25  26  27 0
 3-21G
 ****
 35  36  37  38  39  40  41  42  43  44  45 0
 3-21G
 ****


