%nproc=1
%NoSave
%Mem=1900MB
#P OB98/GEN NMR

erre ene a

0 1
  C     -233.373      41.349      13.024
  O     -233.045      42.206      14.127
  P     -231.816      43.217      13.896
  C     -229.251      43.071      14.305
  O     -230.549      42.651      14.710
  C     -228.148      42.326      15.064
  O     -228.117      42.789      16.435
  C     -228.314      40.805      15.111
  O     -227.014      40.197      15.017
  C     -228.835      40.548      16.511
  O     -228.578      39.217      16.949
  C     -228.093      41.631      17.284
  N     -228.585      40.131      22.096
  C     -227.774      39.634      21.093
  N     -227.005      38.570      21.413
  N     -227.722      40.129      19.884
  C     -228.523      41.216      19.719
  C     -229.363      41.811      20.632
  C     -229.441      41.220      21.953
  O     -230.178      41.583      22.866
  N     -230.013      42.893      20.086
  C     -229.576      42.946      18.843
  N     -228.674      41.944      18.568
  O     -232.256      44.518      14.719
  O     -231.560      43.539      12.462
  H     -227.608      39.100      16.957
  H     -232.256      45.297      14.131
  H     -228.605      39.699      23.003
  H     -229.890      43.663      18.101
  H     -227.040      41.357      17.447
  H     -229.922      40.711      16.529
  H     -226.951      38.175      22.340
  H     -228.967      40.392      14.333
  H     -226.374      38.215      20.705
  H     -227.183      42.593      14.610
  H     -229.149      44.147      14.481
  H     -229.152      42.901      13.228
  P     -226.492      39.834      13.544
  C     -225.980      37.601      12.311
  O     -226.518      38.235      13.456
  O     -224.935      40.188      13.603
  O     -227.202      40.565      12.451
  H     -224.603      40.415      12.715
  H     -225.413      38.294      11.683
  H     -226.794      37.175      11.723
  H     -225.315      36.792      12.632
  H     -234.200      40.725      13.291
  H     -232.528      40.738      12.784
  H     -233.635      41.945      12.175

 3  4  5  6  7  8  9  10  11  12  23  26  30  31  33  0
 6-311+G(2d,p)
 ****
 35  36  37  38 0
 6-311+G(2d,p)
 ****
 1  2  13  14  15  16  17  18  19  20  21  22  24  25  27  28  29 0
 3-21G
 ****
 32  34  39  40  41  42  43  44  45  46  47  48  49 0
 3-21G
 ****


