%nproc=1
%NoSave
%Mem=1900MB
#P OB98/GEN NMR

erre ene a

0 1
  C      349.844     269.571      86.573
  O      348.880     268.660      87.101
  P      348.898     268.318      88.664
  C      349.927     265.961      88.479
  O      348.791     266.729      88.853
  C      349.506     264.622      87.851
  O      349.015     263.724      88.887
  C      348.398     264.775      86.797
  O      348.705     264.129      85.562
  C      347.158     264.279      87.513
  O      346.143     263.833      86.623
  C      347.720     263.240      88.492
  N      346.832     263.027      89.639
  C      345.542     262.598      89.363
  O      345.108     262.469      88.214
  N      344.735     262.376      90.443
  C      345.063     262.614      91.745
  O      344.289     262.446      92.677
  C      346.423     263.131      91.975
  C      347.231     263.313      90.929
  O      347.968     269.117      89.516
  O      350.426     268.606      89.075
  H      345.395     263.480      87.159
  H      350.425     269.016      89.962
  H      343.799     262.045      90.257
  H      346.709     263.354      92.994
  H      348.228     263.702      91.067
  H      347.853     262.271      87.999
  H      346.734     265.111      88.090
  H      348.258     265.826      86.519
  H      350.399     264.177      87.402
  H      350.535     265.760      89.362
  H      350.554     266.547      87.800
  P      348.985     264.893      84.186
  C      346.949     263.749      83.058
  O      348.331     264.042      82.997
  O      350.400     265.314      83.951
  O      348.034     266.179      84.286
  H      348.503     266.953      83.926
  H      346.746     262.891      82.414
  H      346.381     264.607      82.692
  H      346.639     263.509      84.075
  H      349.689     269.684      85.520
  H      350.828     269.191      86.750
  H      349.737     270.521      87.053

 3  4  5  6  7  8  9  10  11  12  13  23  28  29  30  31  32 0
 6-311+G(2d,p)
 ****
 33  34 0
 6-311+G(2d,p)
 ****
 1  2  14  15  16  17  18  19  20  21  22  24  25  26  27 0
 3-21G
 ****
 35  36  37  38  39  40  41  42  43  44  45 0
 3-21G
 ****


