%nproc=1
%NoSave
%Mem=1900MB
#P OB98/GEN NMR

erre ene a

0 1
  C     -108.136    -252.024    -113.902
  O     -106.725    -252.021    -113.915
  H     -108.477    -252.571    -113.019
  H     -108.508    -252.530    -114.795
  H     -108.539    -251.008    -113.861
  P     -105.967    -250.933    -114.807
  C     -103.774    -252.286    -114.610
  O     -104.694    -251.644    -115.485
  C     -103.018    -253.414    -115.312
  O     -103.889    -254.559    -115.457
  C     -102.557    -253.028    -116.718
  O     -101.295    -252.375    -116.764
  C     -102.497    -254.385    -117.414
  O     -101.215    -255.012    -117.234
  C     -103.594    -255.196    -116.710
  N     -106.213    -257.886    -120.184
  C     -104.898    -258.040    -119.778
  N     -104.197    -259.005    -120.406
  N     -104.339    -257.298    -118.857
  C     -105.136    -256.310    -118.394
  C     -106.445    -256.046    -118.736
  C     -107.084    -256.920    -119.701
  O     -108.247    -256.838    -120.078
  N     -106.923    -254.931    -118.083
  C     -105.877    -254.478    -117.421
  N     -104.793    -255.322    -117.515
  O     -105.282    -249.970    -113.721
  O     -106.835    -250.144    -115.741
  H     -100.529    -254.316    -117.270
  H     -105.229    -249.064    -114.076
  H     -106.599    -258.503    -120.874
  H     -105.861    -253.572    -116.830
  H     -103.252    -256.214    -116.483
  H     -102.642    -254.277    -118.494
  H     -104.551    -259.547    -121.179
  H     -103.315    -252.420    -117.221
  H     -103.181    -259.026    -120.272
  H     -102.177    -253.731    -114.684
  H     -104.362    -252.683    -113.782
  H     -103.074    -251.559    -114.196
  P     -101.034    -251.166    -117.774
  C      -98.717    -252.220    -118.407
  O      -99.921    -251.616    -118.825
  O     -100.276    -250.092    -116.866
  O     -102.256    -250.589    -118.418
  H     -100.893    -249.410    -116.549
  H      -98.114    -252.442    -119.262
  H      -98.936    -253.125    -117.880
  H      -98.188    -251.551    -117.761

 6  7  8  9  10  11  12  13  14  15  26  29  33  34 0
 6-311+G(2d,p)
 ****
 36  38  39  40  41 0
 6-311+G(2d,p)
 ****
 1  2  3  4  5  16  17  18  19  20  21  22  23  24  25 0
 3-21G
 ****
 27  28  30  31  32  35  37  42  43  44  45  46  47 0
 3-21G
 ****
 48  49 0
 3-21G
 ****


