%nproc=1
%NoSave
%Mem=1900MB
#P OB98/GEN NMR

erre ene a

0 1
  C       35.669     164.731     -43.611
  O       36.071     164.824     -44.962
  H       36.449     165.169     -42.981
  H       35.544     163.682     -43.330
  H       34.736     165.274     -43.439
  P       35.003     164.503     -46.112
  C       35.930     166.200     -47.819
  O       35.720     164.829     -47.510
  C       36.796     166.344     -49.075
  O       38.196     166.183     -48.694
  C       36.494     165.298     -50.168
  O       36.740     165.922     -51.436
  C       37.546     164.248     -49.863
  O       37.692     163.332     -50.916
  C       38.738     165.154     -49.548
  N       39.847     164.459     -48.907
  C       40.493     163.471     -49.641
  O       40.196     163.170     -50.797
  N       41.504     162.814     -48.992
  C       41.916     163.042     -47.712
  O       42.844     162.437     -47.187
  C       41.175     164.080     -46.976
  C       40.191     164.731     -47.598
  O       33.655     165.118     -45.935
  O       34.923     162.903     -46.117
  H       34.150     162.613     -45.598
  H       38.463     162.747     -50.759
  H       41.983     162.093     -49.510
  H       41.464     164.268     -45.952
  H       39.622     165.501     -47.086
  H       39.100     165.648     -50.457
  H       37.257     163.668     -48.981
  H       35.466     164.929     -50.135
  H       36.687     167.364     -49.464
  H       36.432     166.669     -46.967
  H       34.961     166.686     -47.976
  P       35.727     165.824     -52.678
  C       36.165     168.105     -53.794
  O       36.296     166.695     -53.900
  O       34.312     166.154     -52.323
  O       35.835     164.314     -53.200
  H       34.958     164.016     -53.506
  H       36.579     168.568     -54.665
  H       36.687     168.447     -52.925
  H       35.130     168.362     -53.712

 6  7  8  9  10  11  12  13  14  15  16  27  31  32  33  34  35 0
 6-311+G(2d,p)
 ****
 36  37 0
 6-311+G(2d,p)
 ****
 1  2  3  4  5  17  18  19  20  21  22  23  24  25 0
 3-21G
 ****
 26  28  29  30  38  39  40  41  42  43  44  45 0
 3-21G
 ****


