%nproc=1
%NoSave
%Mem=1900MB
#P OB98/GEN NMR

erre ene a

0 1
  C     -342.613    -351.723     -64.294
  O     -343.675    -352.399     -63.608
  P     -344.509    -351.700     -62.438
  C     -346.826    -352.807     -62.601
  O     -346.054    -351.632     -62.850
  C     -347.111    -353.595     -63.894
  O     -345.886    -354.114     -64.447
  C     -348.043    -354.788     -63.710
  O     -349.391    -354.371     -63.639
  C     -347.687    -355.620     -64.948
  O     -348.389    -355.126     -66.099
  C     -346.182    -355.378     -65.075
  N     -344.515    -360.174     -65.655
  C     -345.268    -359.384     -66.441
  N     -345.687    -358.114     -66.210
  C     -345.199    -357.665     -65.050
  C     -344.404    -358.354     -64.132
  C     -344.064    -359.683     -64.478
  N     -343.291    -360.489     -63.666
  N     -344.137    -357.581     -63.034
  C     -344.724    -356.426     -63.273
  N     -345.370    -356.433     -64.483
  O     -343.951    -350.400     -61.970
  O     -344.491    -352.766     -61.229
  H     -348.060    -355.598     -66.885
  H     -344.565    -352.305     -60.376
  H     -345.593    -359.826     -67.368
  H     -344.701    -355.563     -62.629
  H     -345.878    -355.289     -66.123
  H     -347.970    -356.673     -64.834
  H     -347.771    -355.345     -62.821
  H     -347.534    -352.882     -64.620
  H     -347.778    -352.506     -62.141
  H     -343.121    -361.435     -63.966
  H     -342.998    -360.137     -62.761
  H     -346.272    -353.442     -61.886
  P     -350.115    -354.240     -62.210
  C     -351.505    -352.126     -62.664
  O     -350.405    -352.667     -61.973
  O     -349.435    -354.942     -61.081
  O     -351.577    -354.809     -62.483
  H     -351.937    -355.205     -61.652
  H     -351.208    -351.908     -63.703
  H     -351.796    -351.191     -62.186
  H     -352.357    -352.814     -62.658
  H     -342.195    -352.373     -65.034
  H     -341.854    -351.447     -63.592
  H     -342.997    -350.844     -64.768

 3  4  5  6  7  8  9  10  11  12  22  25  29  30  31  32 0
 6-311+G(2d,p)
 ****
 33  36  37 0
 6-311+G(2d,p)
 ****
 1  2  13  14  15  16  17  18  19  20  21  23  24  26 0
 3-21G
 ****
 27  28  34  35  38  39  40  41  42  43  44  45  46  47  48 0
 3-21G
 ****


