%nproc=1
%NoSave
%Mem=1900MB
#P OB98/GEN NMR

erre ene a

0 1
  C       12.705     186.399     -30.759
  O       12.272     185.091     -31.094
  P       10.871     184.535     -30.559
  C        9.773     184.067     -28.289
  O       10.878     184.666     -28.956
  C        9.594     184.636     -26.884
  O        9.722     186.084     -26.936
  C        8.241     184.323     -26.226
  O        8.480     184.174     -24.821
  C        7.441     185.593     -26.475
  O        6.344     185.745     -25.586
  C        8.546     186.640     -26.315
  N        5.420     190.696     -26.163
  C        5.458     189.560     -25.428
  N        6.307     188.517     -25.549
  C        7.182     188.718     -26.548
  C        7.239     189.811     -27.404
  C        6.313     190.838     -27.172
  N        6.277     192.016     -27.892
  N        8.242     189.629     -28.347
  C        8.769     188.456     -28.058
  N        8.202     187.900     -26.936
  O       10.484     183.184     -31.071
  O        9.808     185.647     -31.010
  H        5.762     184.966     -25.675
  H        9.281     185.313     -31.758
  H        4.720     189.489     -24.632
  H        9.554     187.967     -28.618
  H        8.770     186.833     -25.261
  H        7.051     185.588     -27.503
  H        7.742     183.429     -26.625
  H       10.415     184.265     -26.252
  H        9.961     182.988     -28.222
  H        5.659     192.746     -27.556
  H        7.088     192.275     -28.457
  H        8.856     184.219     -28.876
  P        8.364     182.734     -24.134
  C        6.410     181.249     -23.392
  O        6.832     182.279     -24.270
  O        8.940     182.633     -22.754
  O        9.127     181.765     -25.164
  H        9.357     180.933     -24.719
  H        6.725     180.275     -23.791
  H        5.314     181.265     -23.328
  H        6.832     181.382     -22.390
  H       13.658     186.585     -31.208
  H       12.788     186.486     -29.696
  H       11.995     187.113     -31.121

 3  4  5  6  7  8  9  10  11  12  22  25  29  30  31  32 0
 6-311+G(2d,p)
 ****
 33  36  37 0
 6-311+G(2d,p)
 ****
 1  2  13  14  15  16  17  18  19  20  21  23  24  26 0
 3-21G
 ****
 27  28  34  35  38  39  40  41  42  43  44  45  46  47  48 0
 3-21G
 ****


