%nproc=1
%NoSave
%Mem=1900MB
#P OB98/GEN NMR

erre ene a

0 1
  C      489.752     216.316     167.825
  O      488.771     217.102     168.497
  P      488.983     218.692     168.585
  C      487.004     219.440     167.112
  O      488.422     219.344     167.229
  C      486.618     220.608     166.203
  O      487.017     221.877     166.762
  C      487.274     220.553     164.835
  O      486.667     219.563     164.019
  C      487.092     221.987     164.356
  O      485.780     222.185     163.806
  C      487.239     222.786     165.669
  N      488.532     223.457     165.788
  C      488.778     224.479     164.864
  O      487.954     224.740     163.989
  N      489.964     225.166     164.951
  C      490.826     224.857     165.865
  N      491.983     225.569     165.907
  C      490.608     223.774     166.851
  C      489.454     223.121     166.747
  O      490.346     219.141     168.990
  O      487.880     219.136     169.662
  H      485.741     221.631     163.000
  H      488.206     219.930     170.135
  H      491.355     223.555     167.599
  H      489.213     222.311     167.430
  H      486.459     223.554     165.736
  H      487.814     222.244     163.573
  H      488.345     220.333     164.947
  H      485.524     220.605     166.090
  H      492.114     226.295     165.212
  H      486.564     219.575     168.100
  H      492.693     225.436     166.612
  H      486.622     218.493     166.720
  P      487.486     218.211     163.757
  C      486.277     216.067     164.571
  O      487.099     217.170     164.911
  O      488.994     218.628     164.127
  O      487.398     217.689     162.363
  H      489.614     218.147     163.550
  H      486.368     215.310     165.357
  H      486.573     215.627     163.620
  H      485.231     216.393     164.519
  H      489.465     215.286     167.855
  H      490.699     216.437     168.309
  H      489.829     216.636     166.807

 3  4  5  6  7  8  9  10  11  12  13  23  27  28  29  30  32 0
 6-311+G(2d,p)
 ****
 34  35 0
 6-311+G(2d,p)
 ****
 1  2  14  15  16  17  18  19  20  21  22  24  25  26 0
 3-21G
 ****
 31  33  36  37  38  39  40  41  42  43  44  45  46 0
 3-21G
 ****


