%nproc=1
%NoSave
%Mem=1900MB
#P OB98/GEN NMR

erre ene a

0 1
  C     -144.593    -354.165    -894.935
  O     -143.192    -354.282    -894.825
  H     -144.962    -354.960    -895.585
  H     -144.847    -353.200    -895.385
  H     -145.085    -354.259    -893.965
  P     -142.490    -353.487    -893.615
  C     -142.439    -351.325    -895.055
  O     -141.694    -352.254    -894.285
  C     -141.578    -350.093    -895.375
  O     -141.307    -349.387    -894.105
  C     -140.232    -350.414    -896.025
  O     -139.922    -349.377    -896.975
  C     -139.246    -350.291    -894.875
  O     -137.922    -350.017    -895.315
  C     -139.890    -349.147    -894.075
  N     -135.627    -349.274    -891.435
  C     -135.831    -349.152    -892.785
  N     -134.742    -349.116    -893.575
  N     -137.024    -349.065    -893.325
  C     -138.035    -349.109    -892.415
  C     -137.961    -349.221    -891.055
  C     -136.645    -349.324    -890.465
  O     -136.398    -349.461    -889.275
  N     -139.206    -349.273    -890.495
  C     -140.040    -349.214    -891.535
  N     -139.367    -349.109    -892.715
  O     -141.323    -354.487    -893.165
  O     -143.386    -353.123    -892.485
  H     -137.366    -349.808    -894.525
  H     -141.634    -355.037    -892.425
  H     -134.689    -349.346    -891.065
  H     -141.126    -349.254    -891.465
  H     -139.689    -348.160    -894.525
  H     -139.245    -351.217    -894.285
  H     -133.789    -349.132    -893.235
  H     -140.190    -351.378    -896.525
  H     -134.875    -348.984    -894.565
  H     -142.177    -349.405    -895.995
  H     -143.321    -351.014    -894.495
  H     -142.762    -351.800    -895.985
  P     -140.447    -349.558    -898.485
  C     -138.321    -350.832    -899.295
  O     -139.163    -349.699    -899.435
  O     -141.014    -348.099    -898.855
  O     -141.497    -350.614    -898.635
  H     -141.791    -348.197    -899.445
  H     -137.518    -350.769    -900.000
  H     -138.887    -351.722    -899.478
  H     -137.923    -350.860    -898.303

 6  7  8  9  10  11  12  13  14  15  26  29  33  34 0
 6-311+G(2d,p)
 ****
 36  38  39  40  41 0
 6-311+G(2d,p)
 ****
 1  2  3  4  5  16  17  18  19  20  21  22  23  24  25 0
 3-21G
 ****
 27  28  30  31  32  35  37  42  43  44  45  46  47 0
 3-21G
 ****
 48  49 0
 3-21G
 ****


