%nproc=1
%NoSave
%Mem=1900MB
#P OB98/GEN NMR

erre ene a

0 1
  C      613.777     -60.917    1157.483
  O      615.097     -61.189    1157.920
  P      616.107     -61.881    1156.882
  C      616.770     -59.599    1155.733
  O      616.179     -60.888    1155.620
  C      617.956     -59.486    1154.768
  O      617.577     -59.922    1153.457
  C      618.495     -58.067    1154.598
  O      619.278     -57.652    1155.706
  C      619.256     -58.191    1153.286
  O      620.549     -58.787    1153.504
  C      618.355     -59.173    1152.502
  N      617.494     -58.506    1151.516
  C      618.151     -57.759    1150.543
  O      619.388     -57.634    1150.484
  N      617.342     -57.116    1149.639
  C      615.963     -57.095    1149.657
  O      615.301     -56.477    1148.850
  C      615.346     -57.883    1150.720
  C      616.120     -58.544    1151.593
  O      615.221     -63.121    1156.369
  O      617.424     -62.253    1157.492
  H      614.259     -62.925    1156.442
  H      620.397     -59.683    1153.851
  H      617.784     -56.585    1148.910
  H      614.264     -57.902    1150.777
  H      615.667     -59.102    1152.395
  H      618.971     -59.912    1151.959
  H      619.409     -57.236    1152.788
  H      617.648     -57.365    1154.464
  H      618.765     -60.153    1155.126
  H      617.119     -59.448    1156.758
  H      616.021     -58.844    1155.493
  P      619.606     -56.076    1155.807
  C      618.650     -55.780    1158.228
  O      618.542     -55.463    1156.867
  O      619.108     -55.563    1154.377
  O      621.049     -55.790    1156.118
  H      618.255     -55.963    1154.115
  H      618.093     -55.029    1158.785
  H      619.694     -55.782    1158.547
  H      618.206     -56.759    1158.425
  H      613.226     -60.459    1158.277
  H      613.300     -61.832    1157.199
  H      613.809     -60.255    1156.643

 3  4  5  6  7  8  9  10  11  12  13  24  28  29  30  31  32 0
 6-311+G(2d,p)
 ****
 33  34 0
 6-311+G(2d,p)
 ****
 1  2  14  15  16  17  18  19  20  21  22  23  25  26  27 0
 3-21G
 ****
 35  36  37  38  39  40  41  42  43  44  45 0
 3-21G
 ****


