%nproc=1
%NoSave
%Mem=1900MB
#P OB98/GEN NMR

erre ene a

0 1
  C        6.840    -694.486       4.728
  O        7.472    -695.231       3.676
  P        6.511    -695.746       2.497
  C        8.210    -695.411       0.553
  O        7.444    -696.334       1.339
  C        9.310    -696.112      -0.250
  O       10.426    -696.427       0.640
  C        8.890    -697.444      -0.910
  O        9.531    -697.542      -2.175
  C        9.495    -698.504       0.007
  O        9.679    -699.746      -0.665
  C       10.789    -697.795       0.405
  N       13.745    -701.491       2.243
  C       13.442    -701.159       0.934
  N       13.978    -701.958      -0.036
  N       12.684    -700.157       0.584
  C       12.213    -699.443       1.653
  C       12.443    -699.664       2.990
  C       13.269    -700.796       3.354
  O       13.524    -701.166       4.489
  N       11.820    -698.723       3.762
  C       11.196    -697.939       2.890
  N       11.397    -698.350       1.607
  O        5.934    -694.380       1.890
  O        5.401    -696.654       2.963
  H       10.135    -700.326      -0.028
  H        4.943    -694.397       1.902
  H       14.328    -702.291       2.455
  H       10.570    -697.088       3.163
  H       11.530    -697.836      -0.397
  H        8.830    -698.646       0.852
  H       14.638    -702.696       0.166
  H        7.809    -697.553      -1.035
  H       13.818    -701.698      -1.000
  H        9.673    -695.406      -1.012
  H        8.667    -694.683       1.231
  H        7.532    -694.875      -0.117
  P        8.615    -697.211      -3.468
  C       10.467    -695.699      -4.568
  O        9.668    -696.887      -4.653
  O        8.001    -695.773      -3.127
  O        7.591    -698.226      -3.764
  H        7.151    -695.645      -3.574
  H       10.419    -695.236      -3.579
  H       10.100    -694.991      -5.330
  H       11.503    -695.966      -4.789
  H        7.574    -694.198       5.451
  H        6.095    -695.094       5.198
  H        6.380    -693.611       4.319

 3  4  5  6  7  8  9  10  11  12  23  26  30  31  33  0
 6-311+G(2d,p)
 ****
 35  36  37  38 0
 6-311+G(2d,p)
 ****
 1  2  13  14  15  16  17  18  19  20  21  22  24  25  27  28  29 0
 3-21G
 ****
 32  34  39  40  41  42  43  44  45  46  47  48  49 0
 3-21G
 ****


