%nproc=1
%NoSave
%Mem=1900MB
#P OB98/GEN NMR

erre ene a

0 1
  C      -37.540      27.962      46.099
  O      -38.925      27.646      46.288
  P      -39.680      27.841      47.689
  C      -40.350      26.435      49.746
  O      -39.740      26.437      48.458
  C      -40.656      25.012      50.224
  O      -41.757      24.454      49.482
  C      -39.512      24.022      50.059
  O      -38.518      24.218      51.048
  C      -40.257      22.694      50.155
  O      -40.484      22.327      51.526
  C      -41.588      23.024      49.449
  N      -41.639      22.510      48.087
  C      -41.665      21.120      47.944
  O      -41.587      20.389      48.932
  N      -41.753      20.592      46.678
  C      -41.740      21.379      45.649
  N      -41.837      20.800      44.421
  C      -41.622      22.845      45.753
  C      -41.579      23.336      46.990
  O      -41.002      28.529      47.576
  O      -38.675      28.711      48.584
  H      -39.615      22.072      51.892
  H      -39.193      29.265      49.198
  H      -41.587      23.464      44.870
  H      -41.502      24.405      47.157
  H      -42.432      22.607      50.012
  H      -39.710      21.871      49.688
  H      -39.077      24.122      49.057
  H      -40.960      25.073      51.279
  H      -41.923      19.793      44.385
  H      -41.284      27.004      49.683
  H      -41.838      21.321      43.558
  H      -39.681      26.937      50.453
  P      -37.016      24.559      50.610
  C      -34.834      23.265      50.222
  O      -36.222      23.174      50.484
  O      -36.332      25.613      51.414
  O      -37.165      25.017      49.079
  H      -36.478      25.680      48.880
  H      -34.354      22.340      50.551
  H      -34.387      24.108      50.756
  H      -34.675      23.386      49.148
  H      -37.261      27.750      45.088
  H      -36.945      27.371      46.764
  H      -37.380      29.000      46.304

 3  4  5  6  7  8  9  10  11  12  13  23  27  28  29  30  32 0
 6-311+G(2d,p)
 ****
 34  35 0
 6-311+G(2d,p)
 ****
 1  2  14  15  16  17  18  19  20  21  22  24  25  26 0
 3-21G
 ****
 31  33  36  37  38  39  40  41  42  43  44  45  46 0
 3-21G
 ****


