%nproc=1
%NoSave
%Mem=1900MB
#P OB98/GEN NMR

erre ene a

0 1
  C     -436.733     676.464      93.726
  O     -438.135     676.712      93.696
  P     -439.096     675.517      93.214
  C     -440.915     676.337      94.870
  O     -440.588     676.015      93.533
  C     -442.143     677.236      94.931
  O     -443.258     676.623      94.253
  C     -442.637     677.540      96.339
  O     -441.922     678.591      96.956
  C     -444.066     677.997      96.046
  O     -444.070     679.353      95.583
  C     -444.471     677.050      94.908
  N     -448.449     673.982      93.928
  C     -448.014     675.109      93.319
  N     -446.958     675.874      93.651
  C     -446.337     675.400      94.746
  C     -446.697     674.279      95.482
  C     -447.795     673.543      95.032
  N     -448.226     672.382      95.641
  N     -445.824     674.109      96.540
  C     -444.956     675.093      96.436
  N     -445.214     675.892      95.363
  O     -438.842     674.385      94.311
  O     -438.842     675.025      91.829
  H     -443.322     679.440      94.955
  H     -439.062     673.500      93.946
  H     -448.584     675.433      92.465
  H     -444.119     675.251      97.119
  H     -445.094     677.561      94.143
  H     -444.717     677.951      96.922
  H     -442.665     676.629      96.960
  H     -441.901     678.183      94.403
  H     -440.065     676.838      95.340
  H     -448.910     671.815      95.148
  H     -447.628     671.951      96.339
  H     -441.104     675.395      95.425
  P     -441.797     678.523      98.569
  C     -439.659     680.017      98.494
  O     -440.972     679.834      98.969
  O     -440.752     677.333      98.802
  O     -443.090     678.304      99.264
  H     -440.883     676.925      99.685
  H     -439.373     681.058      98.589
  H     -439.582     679.728      97.442
  H     -438.958     679.396      99.083
  H     -436.223     677.342      94.064
  H     -436.394     676.211      92.743
  H     -436.528     675.653      94.393

 3  4  5  6  7  8  9  10  11  12  22  25  29  30  31  32 0
 6-311+G(2d,p)
 ****
 33  36  37 0
 6-311+G(2d,p)
 ****
 1  2  13  14  15  16  17  18  19  20  21  23  24  26 0
 3-21G
 ****
 27  28  34  35  38  39  40  41  42  43  44  45  46  47  48 0
 3-21G
 ****


