%nproc=1
%NoSave
%Mem=1900MB
#P OB98/GEN NMR

erre ene a

0 1
  C      594.875     441.983    -728.269
  O      593.611     442.567    -728.011
  H      594.979     441.837    -729.347
  H      594.958     441.011    -727.776
  H      595.676     442.645    -727.925
  P      593.178     442.814    -726.490
  C      593.924     445.282    -726.257
  O      594.175     443.924    -725.906
  C      594.590     446.224    -725.258
  O      594.347     445.782    -723.908
  C      596.107     446.312    -725.404
  O      596.457     447.099    -726.526
  C      596.477     446.905    -724.052
  O      596.230     448.321    -724.020
  C      595.496     446.156    -723.113
  N      596.086     444.987    -722.463
  C      596.601     445.197    -721.180
  O      596.564     446.313    -720.665
  N      597.168     444.132    -720.525
  C      597.180     442.954    -721.074
  N      597.747     441.940    -720.375
  C      596.613     442.688    -722.409
  C      596.098     443.744    -723.049
  O      593.047     441.590    -725.632
  O      591.790     443.600    -726.606
  H      595.260     448.425    -724.015
  H      591.043     442.978    -726.565
  H      596.633     441.697    -722.827
  H      595.661     443.636    -724.034
  H      595.134     446.832    -722.328
  H      597.530     446.759    -723.813
  H      596.539     445.306    -725.467
  H      594.125     447.216    -725.368
  H      598.109     442.168    -719.452
  H      592.838     445.419    -726.239
  H      597.669     440.970    -720.629
  H      594.278     445.493    -727.272
  P      597.859     446.906    -727.273
  C      597.152     444.906    -728.730
  O      597.951     445.342    -727.637
  O      599.047     447.449    -726.552
  O      597.616     447.580    -728.705
  H      597.663     448.567    -728.631
  H      597.293     443.856    -728.879
  H      597.440     445.434    -729.615
  H      596.121     445.101    -728.518

 6  7  8  9  10  11  12  13  14  15  16  26  30  31  32  33  35 0
 6-311+G(2d,p)
 ****
 37  38 0
 6-311+G(2d,p)
 ****
 1  2  3  4  5  17  18  19  20  21  22  23  24  25 0
 3-21G
 ****
 27  28  29  34  36  39  40  41  42  43  44  45  46 0
 3-21G
 ****


