%nproc=1
%NoSave
%Mem=1900MB
#P OB98/GEN NMR

erre ene a

0 1
  C      353.461     193.637     533.642
  O      354.069     193.833     532.369
  P      354.831     192.583     531.714
  C      357.065     191.301     532.223
  O      356.256     192.446     532.433
  C      358.558     191.652     532.335
  O      358.898     192.561     531.265
  C      358.963     192.374     533.623
  O      360.380     192.250     533.787
  C      358.615     193.808     533.293
  O      359.275     194.720     534.162
  C      359.000     193.909     531.800
  N      358.139     194.829     531.026
  C      358.727     195.598     530.022
  O      359.921     195.560     529.737
  N      357.893     196.461     529.361
  C      356.554     196.603     529.569
  O      355.874     197.449     529.008
  C      355.962     195.668     530.539
  C      356.767     194.852     531.216
  O      355.179     193.086     530.236
  O      354.021     191.329     531.700
  H      360.245     194.564     534.048
  H      354.592     192.665     529.591
  H      358.319     197.071     528.679
  H      354.890     195.702     530.686
  H      356.348     194.169     531.956
  H      360.039     194.256     531.681
  H      357.539     193.965     533.415
  H      358.449     192.023     534.520
  H      359.153     190.742     532.202
  H      356.849     190.874     531.238
  H      356.816     190.534     532.966
  P      360.918     191.515     535.108
  C      360.689     191.868     537.644
  O      360.324     192.330     536.354
  O      362.387     191.248     535.149
  O      360.067     190.157     535.137
  H      360.508     189.504     535.712
  H      360.693     192.717     538.329
  H      361.686     191.406     537.641
  H      359.953     191.136     537.983
  H      352.992     194.546     533.957
  H      354.208     193.355     534.354
  H      352.726     192.863     533.571

 3  4  5  6  7  8  9  10  11  12  13  23  28  29  30  31  32 0
 6-311+G(2d,p)
 ****
 33  34 0
 6-311+G(2d,p)
 ****
 1  2  14  15  16  17  18  19  20  21  22  24  25  26  27 0
 3-21G
 ****
 35  36  37  38  39  40  41  42  43  44  45 0
 3-21G
 ****


