%nproc=1
%NoSave
%Mem=1900MB
#P OB98/GEN NMR

erre ene a

0 1
  C      102.936    -899.210    -170.599
  O      102.039    -898.120    -170.492
  P      101.854    -897.430    -169.053
  C      103.663    -895.550    -168.992
  O      103.297    -896.870    -168.615
  C      104.758    -895.020    -168.068
  O      104.277    -895.080    -166.698
  C      106.083    -895.800    -168.122
  O      107.127    -894.860    -167.875
  C      105.966    -896.750    -166.940
  O      107.233    -897.220    -166.493
  C      105.229    -895.870    -165.944
  N      105.765    -898.830    -161.876
  C      106.720    -898.270    -162.704
  N      108.011    -898.490    -162.357
  N      106.450    -897.570    -163.766
  C      105.125    -897.420    -163.975
  C      104.075    -897.950    -163.253
  C      104.394    -898.690    -162.055
  O      103.575    -899.120    -161.246
  N      102.869    -897.640    -163.824
  C      103.184    -896.870    -164.839
  N      104.526    -896.670    -164.943
  O      101.632    -898.690    -168.087
  O      100.758    -896.420    -168.954
  H      107.070    -897.920    -165.824
  H      100.678    -898.870    -167.963
  H      106.032    -899.350    -161.053
  H      102.474    -896.420    -165.530
  H      105.898    -895.180    -165.408
  H      105.357    -897.620    -167.224
  H      108.297    -899.010    -161.539
  H      106.248    -896.310    -169.063
  H      108.733    -898.080    -162.934
  H      104.932    -893.960    -168.309
  H      102.787    -894.900    -168.910
  H      103.993    -895.550    -170.041
  P      108.597    -895.210    -168.414
  C      109.214    -893.160    -169.865
  O      108.772    -894.490    -169.835
  O      108.478    -896.760    -168.793
  O      109.694    -894.990    -167.428
  H      109.331    -897.200    -168.648
  H      109.660    -892.940    -170.842
  H      109.959    -892.960    -169.090
  H      108.355    -892.490    -169.717
  H      102.952    -899.561    -171.610
  H      102.616    -900.000    -169.952
  H      103.918    -898.893    -170.316

 3  4  5  6  7  8  9  10  11  12  23  26  30  31 0
 6-311+G(2d,p)
 ****
 33  35  36  37  38 0
 6-311+G(2d,p)
 ****
 1  2  13  14  15  16  17  18  19  20  21  22  24  25 0
 3-21G
 ****
 27  28  29  32  34  39  40  41  42  43  44  45  46  47  48  49 0
 3-21G
 ****


