%nproc=1
%NoSave
%Mem=1900MB
#P OB98/GEN NMR

erre ene a

0 1
  C     -337.624    -615.132     372.330
  O     -338.895    -614.539     372.507
  P     -340.183    -615.446     372.809
  C     -340.061    -614.648     375.252
  O     -340.148    -615.773     374.379
  C     -341.293    -614.589     376.151
  O     -342.481    -614.245     375.386
  C     -341.647    -615.914     376.813
  O     -340.741    -616.430     377.762
  C     -343.064    -615.645     377.282
  O     -343.080    -614.913     378.505
  C     -343.614    -614.769     376.125
  N     -344.525    -615.514     375.261
  C     -345.797    -615.743     375.773
  O     -346.167    -615.362     376.878
  N     -346.641    -616.469     374.975
  C     -346.328    -617.013     373.759
  O     -347.121    -617.691     373.119
  C     -344.961    -616.748     373.277
  C     -344.130    -616.023     374.035
  O     -340.335    -616.642     371.928
  O     -341.395    -614.406     372.704
  H     -342.599    -615.440     379.172
  H     -341.349    -613.663     373.333
  H     -347.564    -616.663     375.331
  H     -344.689    -617.155     372.312
  H     -343.127    -615.817     373.703
  H     -344.156    -613.899     376.527
  H     -343.622    -616.570     377.455
  H     -341.712    -616.684     376.027
  H     -341.144    -613.800     376.890
  H     -340.012    -613.733     374.650
  H     -339.143    -614.715     375.839
  P     -340.504    -617.995     378.001
  C     -339.048    -618.447     375.903
  O     -340.260    -618.690     376.576
  O     -341.434    -618.681     378.954
  O     -339.022    -618.006     378.630
  H     -338.949    -618.751     379.243
  H     -339.071    -618.959     374.938
  H     -338.204    -618.836     376.483
  H     -338.918    -617.373     375.730
  H     -336.898    -614.369     372.139
  H     -337.658    -615.807     371.501
  H     -337.354    -615.668     373.216

 3  4  5  6  7  8  9  10  11  12  13  23  28  29  30  31  32 0
 6-311+G(2d,p)
 ****
 33  34 0
 6-311+G(2d,p)
 ****
 1  2  14  15  16  17  18  19  20  21  22  24  25  26  27 0
 3-21G
 ****
 35  36  37  38  39  40  41  42  43  44  45 0
 3-21G
 ****


