%nproc=1
%NoSave
%Mem=1900MB
#P OB98/GEN NMR

erre ene a

0 1
  C      144.435     101.960     234.605
  O      143.740     103.029     235.217
  H      144.510     101.134     235.318
  H      145.444     102.280     234.333
  H      143.901     101.611     233.716
  P      143.308     104.257     234.281
  C      144.571     106.204     233.112
  O      144.631     105.139     234.049
  C      145.406     107.386     233.613
  O      144.929     107.759     234.938
  C      146.905     107.085     233.732
  O      147.634     108.267     233.381
  C      147.085     106.813     235.216
  O      148.412     107.014     235.685
  C      146.075     107.798     235.812
  N      145.701     107.459     237.185
  C      146.586     107.824     238.198
  O      147.608     108.485     238.034
  N      146.247     107.396     239.457
  C      145.159     106.640     239.787
  O      144.924     106.269     240.932
  C      144.272     106.278     238.675
  C      144.581     106.695     237.444
  O      142.426     105.163     235.264
  O      142.578     103.887     233.032
  H      141.487     104.896     235.223
  H      148.694     107.902     235.392
  H      146.874     107.652     240.202
  H      143.405     105.670     238.898
  H      143.956     106.427     236.597
  H      146.476     108.819     235.784
  H      146.801     105.779     235.441
  H      147.246     106.245     233.115
  H      145.229     108.246     232.955
  H      143.531     106.528     232.994
  H      144.947     105.858     232.143
  P      148.482     108.234     232.017
  C      150.447     106.720     231.161
  O      149.608     107.113     232.241
  O      149.272     109.617     232.110
  O      147.631     108.069     230.806
  H      149.523     109.856     233.022
  H      151.131     105.968     231.496
  H      150.995     107.569     230.808
  H      149.846     106.327     230.367

 6  7  8  9  10  11  12  13  14  15  16  27  31  32  33  34  35 0
 6-311+G(2d,p)
 ****
 36  37 0
 6-311+G(2d,p)
 ****
 1  2  3  4  5  17  18  19  20  21  22  23  24  25 0
 3-21G
 ****
 26  28  29  30  38  39  40  41  42  43  44  45 0
 3-21G
 ****


