%nproc=1
%NoSave
%Mem=1900MB
#P OB98/GEN NMR

erre ene a

0 1
  C      186.866     -26.587      76.523
  O      186.527     -27.394      77.655
  P      186.135     -28.926      77.380
  C      187.370     -29.812      79.507
  O      186.144     -29.648      78.814
  C      187.123     -30.261      80.951
  O      186.590     -29.145      81.729
  C      186.148     -31.434      81.093
  O      186.633     -32.249      82.169
  C      184.850     -30.756      81.490
  O      183.962     -31.649      82.147
  C      185.384     -29.615      82.363
  N      184.415     -28.538      82.540
  C      183.398     -28.750      83.466
  O      183.247     -29.815      84.059
  N      182.528     -27.710      83.646
  C      182.529     -26.534      82.951
  O      181.724     -25.634      83.156
  C      183.559     -26.413      81.908
  C      184.438     -27.406      81.753
  O      187.451     -29.464      76.654
  O      184.872     -29.071      76.598
  H      188.272     -29.084      77.010
  H      183.875     -32.465      81.613
  H      181.801     -27.831      84.335
  H      183.556     -25.520      81.297
  H      185.194     -27.358      80.981
  H      185.665     -29.994      83.356
  H      184.350     -30.359      80.602
  H      186.068     -32.032      80.182
  H      188.092     -30.526      81.393
  H      187.917     -28.865      79.521
  H      187.993     -30.534      78.968
  P      186.766     -33.836      81.923
  C      188.240     -34.208      84.054
  O      187.059     -34.511      83.345
  O      188.197     -33.886      81.200
  O      185.679     -34.440      81.099
  H      188.873     -33.359      81.656
  H      188.139     -34.572      85.078
  H      188.418     -33.129      84.084
  H      189.093     -34.708      83.585
  H      187.104     -25.596      76.850
  H      186.035     -26.551      75.849
  H      187.712     -27.011      76.023

 3  4  5  6  7  8  9  10  11  12  13  24  28  29  30  31  32 0
 6-311+G(2d,p)
 ****
 33  34 0
 6-311+G(2d,p)
 ****
 1  2  14  15  16  17  18  19  20  21  22  23  25  26  27 0
 3-21G
 ****
 35  36  37  38  39  40  41  42  43  44  45 0
 3-21G
 ****


