%nproc=1
%NoSave
%Mem=1900MB
#P OB98/GEN NMR

erre ene a

0 1
  C     -219.695    -190.267    -312.512
  O     -220.277    -189.617    -313.623
  H     -219.803    -189.625    -311.633
  H     -218.631    -190.438    -312.697
  H     -220.198    -191.220    -312.320
  P     -220.307    -190.430    -315.006
  C     -220.225    -188.337    -316.538
  O     -220.984    -189.452    -316.090
  C     -221.147    -187.193    -316.961
  O     -221.511    -186.416    -315.783
  C     -220.521    -186.222    -317.973
  O     -221.557    -185.772    -318.859
  C     -220.102    -185.047    -317.101
  O     -219.950    -183.837    -317.845
  C     -221.253    -185.037    -316.097
  N     -220.128    -180.412    -314.455
  C     -220.463    -180.863    -315.724
  N     -220.499    -179.933    -316.707
  N     -220.730    -182.107    -316.000
  C     -220.687    -182.919    -314.913
  C     -220.370    -182.601    -313.614
  C     -220.045    -181.220    -313.323
  O     -219.727    -180.769    -312.229
  N     -220.407    -183.717    -312.809
  C     -220.750    -184.702    -313.624
  N     -220.927    -184.269    -314.910
  O     -221.435    -191.536    -314.737
  O     -219.013    -191.043    -315.418
  H     -219.959    -183.090    -317.211
  H     -221.031    -192.361    -314.417
  H     -219.921    -179.442    -314.299
  H     -220.879    -185.737    -313.332
  H     -222.164    -184.603    -316.516
  H     -219.149    -185.265    -316.604
  H     -220.350    -178.951    -316.556
  H     -219.692    -186.642    -318.555
  H     -220.784    -180.235    -317.633
  H     -222.074    -187.621    -317.355
  H     -219.612    -188.640    -317.393
  H     -219.565    -188.001    -315.728
  P     -221.240    -185.730    -320.430
  C     -221.834    -183.198    -320.467
  O     -222.012    -184.476    -321.059
  O     -222.078    -186.980    -320.996
  O     -219.790    -185.840    -320.771
  H     -221.650    -187.325    -321.801
  H     -222.413    -182.474    -321.001
  H     -220.800    -182.927    -320.507
  H     -222.155    -183.230    -319.447

 6  7  8  9  10  11  12  13  14  15  26  29  33  34 0
 6-311+G(2d,p)
 ****
 36  38  39  40  41 0
 6-311+G(2d,p)
 ****
 1  2  3  4  5  16  17  18  19  20  21  22  23  24  25 0
 3-21G
 ****
 27  28  30  31  32  35  37  42  43  44  45  46  47 0
 3-21G
 ****
 48  49 0
 3-21G
 ****


