%nproc=1
%NoSave
%Mem=1900MB
#P OB98/GEN NMR

erre ene a

0 1
  C      127.385     105.967     183.693
  O      127.370     104.683     183.104
  H      126.889     106.669     183.018
  H      128.416     106.299     183.850
  H      126.851     105.951     184.644
  P      128.107     103.506     183.910
  C      129.933     103.110     182.105
  O      129.639     103.514     183.435
  C      131.387     103.432     181.780
  O      131.809     102.682     180.617
  C      131.637     104.892     181.433
  O      131.693     105.716     182.585
  C      132.973     104.793     180.713
  O      134.072     104.775     181.640
  C      132.853     103.442     179.972
  N      132.600     103.618     178.546
  C      133.728     103.656     177.734
  O      134.878     103.557     178.166
  N      133.498     103.859     176.400
  C      132.278     104.058     175.818
  O      132.148     104.307     174.623
  C      131.120     103.992     176.725
  C      131.330     103.787     178.028
  O      127.505     102.181     183.244
  O      127.908     103.533     185.388
  H      126.832     101.790     183.830
  H      133.907     105.505     182.269
  H      134.304     103.902     175.796
  H      130.135     104.138     176.294
  H      130.491     103.754     178.718
  H      133.778     102.863     180.083
  H      133.134     105.640     180.047
  H      130.881     105.250     180.724
  H      132.009     103.125     182.633
  H      129.282     103.651     181.407
  H      129.738     102.037     182.006
  P      131.293     107.263     182.438
  C      133.819     107.971     182.584
  O      132.591     108.023     181.880
  O      131.209     107.707     183.972
  O      130.048     107.488     181.649
  H      131.872     107.267     184.531
  H      134.558     108.536     182.055
  H      134.140     106.954     182.667
  H      133.687     108.384     183.562

 6  7  8  9  10  11  12  13  14  15  16  27  31  32  33  34  35 0
 6-311+G(2d,p)
 ****
 36  37 0
 6-311+G(2d,p)
 ****
 1  2  3  4  5  17  18  19  20  21  22  23  24  25 0
 3-21G
 ****
 26  28  29  30  38  39  40  41  42  43  44  45 0
 3-21G
 ****


