%nproc=1
%NoSave
%Mem=1900MB
#P OB98/GEN NMR

erre ene a

0 1
  C     -945.005     185.463     553.794
  O     -945.617     186.737     553.736
  H     -944.037     185.564     554.296
  H     -944.836     185.086     552.783
  H     -945.626     184.764     554.356
  P     -947.093     186.800     553.114
  C     -948.333     188.256     554.866
  O     -948.104     186.950     554.357
  C     -947.562     188.473     556.164
  O     -946.130     188.353     555.893
  C     -947.792     189.848     556.817
  O     -947.757     189.671     558.240
  C     -946.553     190.627     556.405
  O     -946.292     191.733     557.262
  C     -945.503     189.519     556.463
  N     -941.460     192.511     556.583
  C     -942.484     192.350     557.497
  N     -942.419     193.096     558.619
  N     -943.484     191.521     557.328
  C     -943.395     190.811     556.173
  C     -942.444     190.876     555.188
  C     -941.353     191.822     555.378
  O     -940.434     192.025     554.595
  N     -942.729     190.017     554.162
  C     -943.851     189.425     554.528
  N     -944.294     189.873     555.742
  O     -947.329     185.296     552.617
  O     -947.285     187.786     552.014
  H     -945.441     192.137     556.985
  H     -947.083     185.208     551.678
  H     -940.721     193.169     556.756
  H     -944.379     188.677     553.957
  H     -945.202     189.282     557.489
  H     -946.670     191.008     555.381
  H     -941.662     193.717     558.838
  H     -948.724     190.332     556.528
  H     -943.141     192.959     559.321
  H     -947.816     187.660     556.863
  H     -949.404     188.379     555.062
  H     -948.018     188.994     554.117
  P     -948.964     188.877     558.928
  C     -947.763     187.154     560.473
  O     -948.451     187.390     559.250
  O     -949.973     188.647     557.711
  O     -949.612     189.601     560.063
  H     -950.888     188.576     558.055
  H     -947.490     186.121     560.535
  H     -948.400     187.405     561.295
  H     -946.881     187.759     560.508

 6  7  8  9  10  11  12  13  14  15  26  29  33  34 0
 6-311+G(2d,p)
 ****
 36  38  39  40  41 0
 6-311+G(2d,p)
 ****
 1  2  3  4  5  16  17  18  19  20  21  22  23  24  25 0
 3-21G
 ****
 27  28  30  31  32  35  37  42  43  44  45  46  47 0
 3-21G
 ****
 48  49 0
 3-21G
 ****


