%nproc=1
%NoSave
%Mem=1900MB
#P OB98/GEN NMR

erre ene a

0 1
  C      -55.856    -259.272     -81.495
  O      -55.802    -258.046     -82.195
  H      -55.679    -259.080     -80.434
  H      -55.080    -259.945     -81.865
  H      -56.840    -259.739     -81.609
  P      -56.264    -258.053     -83.729
  C      -54.629    -256.107     -84.276
  O      -55.966    -256.582     -84.303
  C      -54.511    -254.833     -85.112
  O      -54.751    -255.172     -86.508
  C      -55.513    -253.738     -84.726
  O      -54.875    -252.467     -84.880
  C      -56.598    -253.880     -85.777
  O      -57.366    -252.702     -85.976
  C      -55.764    -254.272     -87.001
  N      -56.565    -254.904     -88.047
  C      -57.040    -254.089     -89.069
  O      -56.767    -252.898     -89.201
  N      -57.871    -254.700     -89.973
  C      -58.279    -256.001     -89.942
  O      -59.042    -256.484     -90.770
  C      -57.750    -256.809     -88.834
  C      -56.934    -256.231     -87.951
  O      -57.859    -258.094     -83.624
  O      -55.716    -259.165     -84.559
  H      -58.176    -259.016     -83.600
  H      -57.572    -252.333     -85.093
  H      -58.225    -254.124     -90.719
  H      -58.061    -257.843     -88.769
  H      -56.542    -256.794     -87.109
  H      -55.251    -253.394     -87.410
  H      -57.284    -254.688     -85.498
  H      -55.910    -253.832     -83.710
  H      -53.481    -254.463     -85.045
  H      -53.965    -256.870     -84.695
  H      -54.336    -255.913     -83.240
  P      -54.503    -251.662     -83.541
  C      -54.692    -249.426     -84.893
  O      -53.919    -250.254     -84.035
  O      -53.219    -252.472     -83.042
  O      -55.631    -251.597     -82.569
  H      -52.668    -252.801     -83.773
  H      -54.145    -248.534     -85.116
  H      -55.611    -249.169     -84.408
  H      -54.903    -249.951     -85.801

 6  7  8  9  10  11  12  13  14  15  16  27  31  32  33  34  35 0
 6-311+G(2d,p)
 ****
 36  37 0
 6-311+G(2d,p)
 ****
 1  2  3  4  5  17  18  19  20  21  22  23  24  25 0
 3-21G
 ****
 26  28  29  30  38  39  40  41  42  43  44  45 0
 3-21G
 ****


