%nproc=1
%NoSave
%Mem=1900MB
#P OB98/GEN NMR

erre ene a

0 1
  C      188.560    -356.589     -41.470
  O      187.480    -356.608     -40.534
  P      186.266    -355.581     -40.715
  C      187.195    -353.870     -39.014
  O      186.760    -354.102     -40.347
  C      187.154    -352.370     -38.703
  O      188.225    -351.663     -39.375
  C      185.877    -351.697     -39.189
  O      184.682    -352.029     -38.517
  C      186.278    -350.231     -39.220
  O      186.165    -349.628     -37.932
  C      187.762    -350.319     -39.649
  N      187.971    -349.965     -41.052
  C      187.738    -348.631     -41.381
  O      187.340    -347.795     -40.578
  N      187.944    -348.302     -42.697
  C      188.318    -349.160     -43.692
  O      188.467    -348.813     -44.858
  C      188.522    -350.561     -43.283
  C      188.343    -350.893     -42.003
  O      184.973    -355.995     -40.093
  O      186.110    -355.504     -42.314
  H      186.312    -350.331     -37.267
  H      185.152    -355.494     -42.519
  H      187.788    -347.339     -42.954
  H      188.817    -351.269     -44.047
  H      188.490    -351.918     -41.681
  H      188.378    -349.648     -39.039
  H      185.647    -349.652     -39.902
  H      185.717    -352.001     -40.237
  H      187.290    -352.233     -37.626
  H      188.203    -354.258     -38.878
  H      186.553    -354.433     -38.326
  P      183.337    -352.458     -39.271
  C      182.120    -350.208     -38.848
  O      182.607    -351.131     -39.796
  O      182.482    -353.494     -38.615
  O      183.923    -353.072     -40.637
  H      183.337    -353.797     -40.927
  H      181.642    -349.380     -39.385
  H      182.943    -349.810     -38.250
  H      181.378    -350.681     -38.200
  H      189.279    -357.335     -41.201
  H      189.025    -355.625     -41.459
  H      188.185    -356.793     -42.451

 3  4  5  6  7  8  9  10  11  12  13  23  28  29  30  31  32 0
 6-311+G(2d,p)
 ****
 33  34 0
 6-311+G(2d,p)
 ****
 1  2  14  15  16  17  18  19  20  21  22  24  25  26  27 0
 3-21G
 ****
 35  36  37  38  39  40  41  42  43  44  45 0
 3-21G
 ****


