%nproc=1
%NoSave
%Mem=1900MB
#P OB98/GEN NMR

erre ene a

0 1
  C     -201.582    -707.962    -254.173
  O     -202.199    -707.637    -252.922
  P     -202.871    -708.826    -252.080
  C     -201.959    -709.889    -249.884
  O     -202.369    -708.704    -250.560
  C     -201.048    -709.535    -248.704
  O     -199.839    -708.854    -249.141
  C     -201.704    -708.603    -247.679
  O     -202.522    -709.335    -246.767
  C     -200.492    -708.050    -246.948
  O     -200.012    -709.014    -245.997
  C     -199.470    -707.890    -248.101
  N     -197.075    -703.440    -248.052
  C     -196.812    -704.601    -247.356
  N     -195.748    -704.572    -246.513
  N     -197.523    -705.681    -247.449
  C     -198.552    -705.581    -248.341
  C     -198.916    -704.482    -249.087
  C     -198.131    -703.274    -248.953
  O     -198.326    -702.223    -249.533
  N     -200.017    -704.750    -249.857
  C     -200.300    -706.007    -249.597
  N     -199.458    -706.558    -248.664
  O     -202.100    -710.126    -252.613
  O     -204.352    -708.943    -252.266
  H     -199.232    -708.613    -245.561
  H     -202.673    -710.920    -252.522
  H     -196.501    -702.621    -247.928
  H     -201.121    -706.569    -250.046
  H     -198.452    -708.139    -247.796
  H     -200.715    -707.135    -246.408
  H     -195.118    -703.781    -246.427
  H     -202.256    -707.799    -248.172
  H     -195.519    -705.427    -246.029
  H     -200.755    -710.462    -248.196
  H     -201.423    -710.549    -250.575
  H     -202.839    -710.447    -249.560
  P     -204.115    -709.238    -246.941
  C     -205.257    -710.264    -249.035
  O     -204.546    -710.496    -247.834
  O     -204.287    -707.977    -247.926
  O     -204.872    -709.042    -245.667
  H     -205.119    -707.507    -247.738
  H     -205.318    -711.218    -249.591
  H     -204.743    -709.534    -249.664
  H     -206.274    -709.927    -248.815
  H     -201.181    -707.074    -254.615
  H     -202.311    -708.389    -254.830
  H     -200.793    -708.666    -254.009

 3  4  5  6  7  8  9  10  11  12  23  26  30  31 0
 6-311+G(2d,p)
 ****
 33  35  36  37  38 0
 6-311+G(2d,p)
 ****
 1  2  13  14  15  16  17  18  19  20  21  22  24  25 0
 3-21G
 ****
 27  28  29  32  34  39  40  41  42  43  44  45  46  47  48  49 0
 3-21G
 ****


