%nproc=1
%NoSave
%Mem=1900MB
#P OB98/GEN NMR

erre ene a

0 1
  C     -553.352     -72.275      34.063
  O     -552.236     -73.145      34.092
  H     -553.250     -71.549      33.250
  H     -554.255     -72.869      33.893
  H     -553.443     -71.753      35.017
  P     -550.797     -72.450      34.217
  C     -549.290     -72.296      32.108
  O     -550.458     -71.827      32.777
  C     -549.671     -73.347      31.069
  O     -550.813     -72.903      30.298
  C     -548.585     -73.637      30.038
  O     -547.582     -74.500      30.558
  C     -549.408     -74.320      28.948
  O     -549.628     -75.701      29.297
  C     -550.730     -73.546      29.002
  N     -550.628     -72.593      23.950
  C     -550.461     -73.733      24.645
  N     -550.488     -73.912      25.986
  C     -550.745     -72.754      26.627
  C     -550.935     -71.506      26.046
  C     -550.870     -71.446      24.626
  N     -551.025     -70.267      23.925
  N     -551.178     -70.545      27.004
  C     -551.131     -71.202      28.147
  N     -550.863     -72.532      27.972
  O     -549.791     -73.691      34.335
  O     -550.636     -71.511      35.376
  H     -550.109     -76.104      28.554
  H     -549.062     -73.456      34.936
  H     -550.283     -74.626      24.063
  H     -551.293     -70.752      29.117
  H     -551.597     -74.222      28.925
  H     -548.922     -74.306      27.977
  H     -548.153     -72.707      29.633
  H     -549.956     -74.258      31.607
  H     -548.608     -72.748      32.841
  H     -551.151     -70.321      22.934
  H     -551.201     -69.425      24.451
  H     -548.800     -71.443      31.628
  P     -546.194     -74.600      29.744
  C     -545.765     -76.861      28.552
  O     -546.465     -75.617      28.540
  O     -545.250     -75.431      30.733
  O     -545.588     -73.276      29.366
  H     -544.311     -75.210      30.551
  H     -546.043     -77.435      27.693
  H     -546.016     -77.403      29.440
  H     -544.711     -76.677      28.533

 6  7  8  9  10  11  12  13  14  15  25  28  32  33  34  35 0
 6-311+G(2d,p)
 ****
 36  39  40 0
 6-311+G(2d,p)
 ****
 1  2  3  4  5  16  17  18  19  20  21  22  23  24 0
 3-21G
 ****
 26  27  29  30  31  37  38  41  42  43  44  45  46  47  48 0
 3-21G
 ****


