%nproc=1
%NoSave
%Mem=1900MB
#P OB98/GEN NMR

erre ene a

0 1
  C      270.333    -373.171     211.179
  O      271.630    -372.714     210.774
  P      272.615    -373.817     210.146
  C      274.298    -374.780     211.872
  O      273.003    -374.865     211.298
  C      274.668    -376.041     212.653
  O      274.767    -377.189     211.760
  C      276.005    -375.938     213.396
  O      275.888    -376.705     214.600
  C      276.974    -376.638     212.463
  O      278.143    -377.069     213.164
  C      276.079    -377.765     211.920
  N      276.577    -378.348     210.668
  C      277.273    -379.554     210.760
  O      277.506    -380.057     211.864
  N      277.721    -380.148     209.612
  C      277.544    -379.559     208.472
  N      278.020    -380.192     207.363
  C      276.869    -378.250     208.336
  C      276.412    -377.711     209.463
  O      273.970    -372.999     209.904
  O      272.107    -374.418     208.878
  H      278.541    -376.287     213.607
  H      274.293    -373.150     208.993
  H      276.757    -377.781     207.363
  H      275.900    -376.756     209.462
  H      276.001    -378.583     212.654
  H      277.277    -375.965     211.654
  H      276.289    -374.914     213.642
  H      273.861    -376.255     213.361
  H      278.471    -381.090     207.500
  H      274.344    -373.921     212.549
  H      277.936    -379.825     206.426
  H      275.027    -374.576     211.082
  P      275.661    -375.925     215.983
  C      278.084    -375.224     216.463
  O      276.807    -374.805     216.008
  O      276.228    -376.988     217.046
  O      274.277    -375.481     216.333
  H      276.079    -376.648     217.948
  H      278.793    -374.399     216.314
  H      278.429    -376.087     215.898
  H      278.041    -375.453     217.530
  H      269.774    -372.350     211.578
  H      270.439    -373.928     211.928
  H      269.817    -373.576     210.333

 3  4  5  6  7  8  9  10  11  12  13  21  23  27  28  29  30  32 0
 6-311+G(2d,p)
 ****
 34  35 0
 6-311+G(2d,p)
 ****
 1  2  14  15  16  17  18  19  20  22  24  25  26 0
 3-21G
 ****
 31  33  36  37  38  39  40  41  42  43  44  45  46 0
 3-21G
 ****


