%nproc=1
%NoSave
%Mem=1900MB
#P OB98/GEN NMR

erre ene a

0 1
  C      -61.587    -445.476      33.430
  O      -60.566    -446.155      34.143
  P      -59.514    -445.247      34.944
  C      -57.713    -443.550      34.114
  O      -58.445    -444.736      33.868
  C      -56.942    -443.146      32.856
  O      -57.859    -442.960      31.753
  C      -56.166    -441.841      32.988
  O      -54.933    -442.073      33.636
  C      -56.030    -441.419      31.530
  O      -54.949    -442.128      30.890
  C      -57.388    -441.841      30.945
  N      -58.932    -437.662      28.549
  C      -57.784    -438.401      28.391
  N      -56.930    -437.989      27.422
  N      -57.476    -439.454      29.116
  C      -58.412    -439.740      30.054
  C      -59.583    -439.076      30.324
  C      -59.931    -437.951      29.479
  O      -60.991    -437.326      29.514
  N      -60.263    -439.644      31.370
  C      -59.513    -440.678      31.706
  N      -58.381    -440.786      30.933
  O      -58.709    -446.318      35.821
  O      -60.116    -444.162      35.779
  H      -54.106    -441.704      31.139
  H      -59.052    -446.345      36.734
  H      -59.123    -436.881      27.955
  H      -59.745    -441.378      32.496
  H      -57.293    -442.201      29.916
  H      -55.809    -440.354      31.430
  H      -57.076    -437.176      26.843
  H      -56.761    -441.098      33.532
  H      -56.074    -438.518      27.299
  H      -56.273    -443.974      32.593
  H      -57.004    -443.727      34.927
  H      -58.406    -442.752      34.424
  P      -54.282    -440.848      34.446
  C      -53.598    -438.477      33.639
  O      -53.626    -439.862      33.365
  O      -53.017    -441.513      35.171
  O      -55.195    -440.199      35.431
  H      -52.891    -441.107      36.045
  H      -52.721    -438.039      33.147
  H      -53.531    -438.272      34.720
  H      -54.499    -438.005      33.243
  H      -62.217    -446.190      32.943
  H      -61.144    -444.834      32.698
  H      -62.170    -444.892      34.111

 3  4  5  6  7  8  9  10  11  12  23  26  30  31 0
 6-311+G(2d,p)
 ****
 33  35  36  37  38 0
 6-311+G(2d,p)
 ****
 1  2  13  14  15  16  17  18  19  20  21  22  24  25 0
 3-21G
 ****
 27  28  29  32  34  39  40  41  42  43  44  45  46  47  48  49 0
 3-21G
 ****


