%nproc=1
%NoSave
%Mem=1900MB
#P OB98/GEN NMR

erre ene a

0 1
  C     -192.582     116.087     202.711
  O     -193.131     115.277     203.736
  H     -191.622     115.664     202.403
  H     -192.428     117.104     203.078
  H     -193.255     116.100     201.844
  P     -194.572     115.713     204.294
  C     -193.571     116.895     206.395
  O     -194.321     117.020     205.194
  C     -193.702     118.171     207.232
  O     -192.899     118.014     208.444
  C     -193.192     119.437     206.519
  O     -193.939     120.572     207.001
  C     -191.762     119.531     207.033
  O     -191.233     120.811     206.802
  C     -191.986     119.137     208.489
  N     -187.622     120.937     210.423
  C     -188.694     121.558     209.881
  N     -189.820     121.003     209.397
  C     -189.798     119.665     209.538
  C     -188.776     118.894     210.074
  C     -187.637     119.585     210.527
  N     -186.541     118.955     211.058
  N     -189.112     117.551     210.023
  C     -190.310     117.514     209.472
  N     -190.761     118.772     209.169
  O     -194.908     114.571     205.370
  O     -195.647     115.849     203.272
  H     -190.269     120.833     206.975
  H     -195.422     113.856     204.948
  H     -188.630     122.642     209.826
  H     -190.887     116.621     209.270
  H     -192.464     119.939     209.069
  H     -191.112     118.808     206.520
  H     -193.267     119.382     205.428
  H     -194.742     118.292     207.558
  H     -192.518     116.725     206.133
  H     -193.944     116.041     206.971
  H     -185.749     119.521     211.334
  H     -186.524     117.947     211.108
  P     -195.088     121.201     206.065
  C     -193.672     123.110     204.983
  O     -194.435     121.926     204.793
  O     -195.586     122.441     206.950
  O     -196.233     120.291     205.758
  H     -196.564     122.464     206.962
  H     -193.313     123.459     204.037
  H     -192.841     122.900     205.624
  H     -194.287     123.863     205.431

 6  7  8  9  10  11  12  13  14  15  25  28  32  33  34  35 0
 6-311+G(2d,p)
 ****
 36  37  40 0
 6-311+G(2d,p)
 ****
 1  2  3  4  5  16  17  18  19  20  21  22  23  24 0
 3-21G
 ****
 26  27  29  30  31  38  39 41  42  43  44  45  46  47  48 0
 3-21G
 ****


