%nproc=1
%NoSave
%Mem=1900MB
#P OB98/GEN NMR

erre ene a

0 1
  C     -132.138    -219.372     478.994
  O     -131.577    -219.196     480.283
  H     -132.870    -218.578     478.818
  H     -132.650    -220.337     478.921
  H     -131.358    -219.308     478.231
  P     -130.587    -220.326     480.839
  C     -132.732    -221.425     481.781
  O     -131.502    -221.616     481.088
  C     -132.975    -222.584     482.745
  O     -132.732    -223.841     482.085
  C     -132.053    -222.561     483.954
  O     -132.465    -221.584     484.888
  C     -132.162    -223.999     484.422
  O     -133.362    -224.214     485.177
  C     -132.216    -224.760     483.076
  N     -130.916    -225.288     482.677
  C     -130.607    -226.573     483.136
  O     -131.409    -227.196     483.830
  N     -129.384    -227.106     482.808
  C     -128.555    -226.432     482.079
  N     -127.360    -227.019     481.795
  C     -128.846    -225.083     481.561
  C     -130.032    -224.574     481.898
  O     -129.719    -219.952     482.002
  O     -129.724    -220.737     479.554
  H     -134.100    -224.040     484.561
  H     -128.926    -220.179     479.487
  H     -128.126    -224.557     480.954
  H     -130.327    -223.587     481.557
  H     -132.923    -225.596     483.133
  H     -131.321    -224.280     485.050
  H     -131.020    -222.385     483.638
  H     -134.029    -222.563     483.050
  H     -127.198    -227.941     482.178
  H     -133.524    -221.384     481.029
  H     -126.678    -226.628     481.164
  H     -132.723    -220.474     482.328
  P     -131.393    -220.627     485.595
  C     -130.981    -221.948     487.774
  O     -130.475    -221.600     486.484
  O     -131.961    -219.450     486.312
  O     -130.414    -220.226     484.388
  H     -130.838    -219.568     483.783
  H     -130.286    -222.595     488.267
  H     -131.920    -222.449     487.665
  H     -131.116    -221.060     488.356

 6  7  8  9  10  11  12  13  14  15  16  26  30  31  32  33  35 0
 6-311+G(2d,p)
 ****
 37  38 0
 6-311+G(2d,p)
 ****
 1  2  3  4  5  17  18  19  20  21  22  23  24  25 0
 3-21G
 ****
 27  28  29  34  36  39  40  41  42  43  44  45  46 0
 3-21G
 ****


