%nproc=1
%NoSave
%Mem=1900MB
#P OB98/GEN NMR

erre ene a

0 1
  C      429.532     163.928    -168.064
  O      428.833     165.165    -167.967
  P      427.927     165.605    -166.726
  C      429.796     166.686    -165.237
  O      428.624     166.859    -166.017
  C      430.469     168.014    -164.849
  O      431.440     167.779    -163.788
  C      431.251     168.588    -166.030
  O      430.581     169.346    -167.024
  C      432.439     169.295    -165.401
  O      432.199     170.687    -165.190
  C      432.605     168.578    -164.057
  N      437.173     167.706    -161.913
  C      436.291     168.742    -161.696
  N      436.692     169.700    -160.832
  N      435.129     168.843    -162.284
  C      434.893     167.861    -163.188
  C      435.697     166.794    -163.503
  C      436.962     166.659    -162.803
  O      437.771     165.756    -162.957
  N      435.138     166.019    -164.493
  C      434.005     166.631    -164.783
  N      433.810     167.754    -164.012
  O      427.465     164.495    -165.841
  O      426.622     166.243    -167.427
  H      432.786     170.991    -164.475
  H      425.866     166.050    -166.837
  H      438.048     167.665    -161.417
  H      433.296     166.302    -165.527
  H      432.691     169.293    -163.233
  H      433.320     169.226    -166.057
  H      437.619     169.745    -160.437
  H      431.676     167.733    -166.571
  H      436.146     170.570    -160.833
  H      429.737     168.712    -164.432
  H      430.482     166.063    -165.821
  H      429.562     166.111    -164.335
  P      430.389     168.938    -168.559
  C      427.910     168.665    -167.982
  O      428.848     169.135    -168.935
  O      430.547     167.342    -168.558
  O      431.361     169.572    -169.506
  H      430.710     167.017    -169.466
  H      426.933     168.568    -168.463
  H      427.824     169.381    -167.160
  H      428.208     167.690    -167.586
  H      430.059     163.888    -168.994
  H      428.834     163.119    -168.015
  H      430.228     163.847    -167.255

 3  4  5  6  7  8  9  10  11  12  23  26  30  31 0
 6-311+G(2d,p)
 ****
 33  35  36  37  38 0
 6-311+G(2d,p)
 ****
 1  2  13  14  15  16  17  18  19  20  21  22  24  25 0
 3-21G
 ****
 27  28  29  32  34  39  40  41  42  43  44  45  46  47  48  49 0
 3-21G
 ****


