%nproc=1
%NoSave
%Mem=1900MB
#P OB98/GEN NMR

erre ene a

0 1
  C      349.050    -328.478    -356.822
  O      348.199    -327.412    -357.249
  P      348.816    -325.946    -357.414
  C      349.689    -326.283    -359.815
  O      350.035    -326.030    -358.456
  C      350.332    -325.247    -360.744
  O      351.763    -325.197    -360.572
  C      350.108    -325.541    -362.216
  O      348.778    -325.241    -362.589
  C      351.179    -324.681    -362.856
  O      350.742    -323.324    -362.984
  C      352.334    -324.774    -361.834
  N      353.411    -325.659    -362.255
  C      354.236    -325.173    -363.280
  O      354.012    -324.079    -363.790
  N      355.283    -325.954    -363.698
  C      355.493    -327.112    -363.155
  N      356.544    -327.836    -363.611
  C      354.632    -327.657    -362.084
  C      353.618    -326.892    -361.690
  O      349.112    -325.223    -356.145
  O      347.689    -325.178    -358.260
  H      350.622    -322.980    -362.076
  H      347.703    -324.228    -358.025
  H      354.849    -328.633    -361.661
  H      352.950    -327.221    -360.915
  H      352.770    -323.788    -361.654
  H      351.441    -325.025    -363.869
  H      350.317    -326.607    -362.421
  H      349.914    -324.263    -360.494
  H      357.102    -327.430    -364.355
  H      348.600    -326.256    -359.922
  H      356.822    -328.733    -363.221
  H      350.012    -327.300    -360.078
  P      348.174    -325.978    -363.887
  C      346.936    -328.018    -362.859
  O      348.082    -327.545    -363.547
  O      349.387    -325.907    -364.932
  O      346.936    -325.368    -364.454
  H      349.035    -325.815    -365.838
  H      346.868    -329.102    -362.996
  H      346.023    -327.561    -363.258
  H      347.022    -327.797    -361.794
  H      348.484    -329.384    -356.764
  H      349.455    -328.247    -355.859
  H      349.848    -328.600    -357.524

 3  4  5  6  7  8  9  10  11  12  13  23  27  28  29  30  32 0
 6-311+G(2d,p)
 ****
 34  35 0
 6-311+G(2d,p)
 ****
 1  2  14  15  16  17  18  19  20  21  22  24  25  26 0
 3-21G
 ****
 31  33  36  37  38  39  40  41  42  43  44  45  46 0
 3-21G
 ****


