%nproc=1
%NoSave
%Mem=1900MB
#P OB98/GEN NMR

erre ene a

0 1
  C      -35.334      32.636     -61.590
  O      -35.864      31.420     -62.068
  H      -35.051      32.506     -60.543
  H      -36.096      33.418     -61.653
  H      -34.451      32.939     -62.157
  P      -35.933      31.179     -63.647
  C      -38.213      32.364     -63.893
  O      -36.848      32.333     -64.290
  C      -38.949      33.560     -64.496
  O      -38.524      34.773     -63.840
  C      -38.655      33.739     -65.988
  O      -39.499      32.991     -66.847
  C      -38.874      35.238     -66.174
  O      -40.248      35.532     -66.474
  C      -38.483      35.825     -64.814
  N      -35.465      39.474     -66.740
  C      -36.718      39.072     -67.164
  N      -37.202      39.700     -68.257
  N      -37.410      38.134     -66.574
  C      -36.754      37.532     -65.557
  C      -35.505      37.829     -65.061
  C      -34.776      38.919     -65.672
  O      -33.672      39.323     -65.325
  N      -35.149      36.974     -64.045
  C      -36.145      36.112     -63.990
  N      -37.176      36.456     -64.832
  O      -36.868      29.882     -63.785
  O      -34.615      30.953     -64.324
  H      -40.520      34.971     -67.225
  H      -36.599      29.369     -64.568
  H      -34.993      40.221     -67.216
  H      -36.191      35.253     -63.331
  H      -39.200      36.589     -64.488
  H      -38.282      35.617     -67.011
  H      -36.677      40.367     -68.799
  H      -37.607      33.518     -66.205
  H      -38.029      39.307     -68.712
  H      -40.025      33.454     -64.309
  H      -38.219      32.431     -62.805
  H      -38.710      31.430     -64.168
  P      -38.895      32.164     -68.074
  C      -39.363      33.996     -69.894
  O      -38.433      33.195     -69.199
  O      -40.188      31.473     -68.714
  O      -37.843      31.165     -67.719
  H      -40.269      30.549     -68.412
  H      -38.846      34.612     -70.600
  H      -39.890      34.615     -69.199
  H      -40.058      33.368     -70.411

 6  7  8  9  10  11  12  13  14  15  26  29  33  34 0
 6-311+G(2d,p)
 ****
 36  38  39  40  41 0
 6-311+G(2d,p)
 ****
 1  2  3  4  5  16  17  18  19  20  21  22  23  24  25 0
 3-21G
 ****
 27  28  30  31  32  35  37  42  43  44  45  46  47 0
 3-21G
 ****
 48  49 0
 3-21G
 ****


