%nproc=1
%NoSave
%Mem=1900MB
#P OB98/GEN NMR

erre ene a

0 1
  C      172.458     750.947    -384.582
  O      173.033     751.233    -385.836
  P      173.254     752.756    -386.287
  C      175.768     752.804    -385.703
  O      174.790     752.910    -386.749
  C      177.011     752.092    -386.223
  O      176.771     750.672    -386.334
  C      177.460     752.542    -387.604
  O      178.127     753.790    -387.542
  C      178.351     751.371    -388.020
  O      179.663     751.504    -387.449
  C      177.614     750.175    -387.404
  N      177.758     746.683    -391.122
  C      178.737     747.332    -390.445
  N      178.625     748.276    -389.489
  C      177.329     748.563    -389.269
  C      176.212     748.021    -389.909
  C      176.466     747.009    -390.866
  N      175.476     746.308    -391.513
  N      175.058     748.599    -389.434
  C      175.453     749.478    -388.533
  N      176.814     749.445    -388.366
  O      172.782     753.789    -385.312
  O      172.457     752.869    -387.667
  H      179.566     751.471    -386.477
  H      171.757     753.543    -387.585
  H      179.748     747.030    -390.699
  H      174.803     750.151    -387.982
  H      178.301     749.462    -386.952
  H      178.471     751.302    -389.109
  H      176.604     752.592    -388.283
  H      177.820     752.234    -385.492
  H      175.334     752.251    -384.868
  H      175.756     745.516    -392.065
  H      174.531     746.322    -391.115
  H      176.027     753.818    -385.359
  P      178.309     754.655    -388.876
  C      176.387     756.302    -388.492
  O      177.784     756.132    -388.536
  O      177.759     754.059    -390.123
  O      179.900     754.863    -388.974
  H      180.157     754.920    -389.916
  H      175.973     756.371    -389.503
  H      176.150     757.247    -387.964
  H      175.905     755.479    -387.948
  H      172.389     749.887    -384.455
  H      171.479     751.376    -384.532
  H      173.069     751.361    -383.807

 3  4  5  6  7  8  9  10  11  12  22  25  29  30  31  32 0
 6-311+G(2d,p)
 ****
 33  36  37 0
 6-311+G(2d,p)
 ****
 1  2  13  14  15  16  17  18  19  20  21  23  24  26 0
 3-21G
 ****
 27  28  34  35  38  39  40  41  42  43  44  45  46  47  48 0
 3-21G
 ****


