%nproc=1
%NoSave
%Mem=1900MB
#P OB98/GEN NMR

erre ene a

0 1
  C     -331.411    -527.722    -819.900
  O     -332.567    -526.925    -819.806
  P     -332.600    -525.653    -818.823
  C     -331.790    -523.965    -820.602
  O     -332.873    -524.384    -819.758
  C     -332.229    -522.834    -821.520
  O     -333.238    -523.262    -822.444
  C     -332.846    -521.640    -820.785
  O     -331.845    -520.853    -820.161
  C     -333.596    -520.941    -821.922
  O     -332.704    -520.118    -822.671
  C     -334.072    -522.141    -822.788
  N     -335.476    -522.438    -822.549
  C     -336.405    -521.673    -823.298
  O     -335.977    -520.774    -824.049
  N     -337.737    -521.879    -823.125
  C     -338.156    -522.779    -822.269
  N     -339.492    -522.944    -822.137
  C     -337.221    -523.607    -821.442
  C     -335.925    -523.365    -821.634
  O     -331.441    -525.548    -817.894
  O     -334.025    -525.840    -818.055
  H     -332.292    -519.489    -822.026
  H     -333.956    -526.575    -817.380
  H     -337.606    -524.320    -820.747
  H     -335.173    -523.917    -821.098
  H     -333.901    -521.929    -823.846
  H     -334.406    -520.322    -821.557
  H     -333.564    -522.007    -820.043
  H     -331.347    -522.499    -822.096
  H     -340.091    -522.354    -822.695
  H     -331.503    -524.829    -821.219
  H     -339.912    -523.606    -821.477
  H     -330.937    -523.683    -819.982
  P     -332.190    -519.997    -818.853
  C     -331.137    -521.727    -817.251
  O     -331.105    -520.402    -817.712
  O     -333.629    -520.031    -818.433
  O     -331.753    -518.510    -819.268
  H     -332.462    -517.882    -818.973
  H     -330.185    -521.937    -816.759
  H     -331.292    -522.414    -818.093
  H     -331.949    -521.842    -816.537
  H     -331.580    -528.514    -820.599
  H     -331.184    -528.136    -818.940
  H     -330.590    -527.122    -820.232

 3  4  5  6  7  8  9  10  11  12  13  23  27  28  29  30  32 0
 6-311+G(2d,p)
 ****
 34  35 0
 6-311+G(2d,p)
 ****
 1  2  14  15  16  17  18  19  20  21  22  24  25  26 0
 3-21G
 ****
 31  33  36  37  38  39  40  41  42  43  44  45  46 0
 3-21G
 ****


