%nproc=1
%NoSave
%Mem=1900MB
#P OB98/GEN NMR

erre ene a

0 1
  C     -631.369    -475.206    -484.873
  O     -630.224    -475.056    -484.043
  P     -628.786    -475.418    -484.648
  C     -627.102    -473.472    -484.436
  O     -628.118    -474.083    -485.229
  C     -627.263    -471.938    -484.436
  O     -628.550    -471.591    -483.885
  C     -626.232    -471.178    -483.588
  O     -625.009    -470.794    -484.195
  C     -626.994    -469.898    -483.275
  O     -626.860    -468.971    -484.380
  C     -628.443    -470.356    -483.166
  N     -628.780    -468.139    -478.565
  C     -628.305    -467.684    -479.737
  N     -628.250    -468.346    -480.924
  C     -628.768    -469.571    -480.808
  C     -629.294    -470.171    -479.665
  C     -629.291    -469.388    -478.499
  N     -629.759    -469.842    -477.290
  N     -629.719    -471.452    -479.932
  C     -629.444    -471.645    -481.214
  N     -628.878    -470.537    -481.786
  O     -628.738    -476.607    -485.547
  O     -627.916    -475.678    -483.319
  H     -627.082    -469.466    -485.185
  H     -627.291    -476.421    -483.492
  H     -627.919    -466.674    -479.750
  H     -629.631    -472.552    -481.748
  H     -629.132    -469.639    -483.632
  H     -626.598    -469.382    -482.396
  H     -626.024    -471.727    -482.657
  H     -627.221    -471.579    -485.476
  H     -626.113    -473.737    -484.835
  H     -629.685    -469.237    -476.488
  H     -630.091    -470.797    -477.211
  H     -627.176    -473.897    -483.430
  P     -623.931    -471.879    -484.696
  C     -623.784    -470.938    -487.132
  O     -624.153    -472.000    -486.280
  O     -623.967    -473.180    -483.968
  O     -622.554    -471.090    -484.585
  H     -622.450    -470.354    -485.219
  H     -623.793    -471.301    -488.167
  H     -622.772    -470.588    -486.907
  H     -624.476    -470.111    -487.032
  H     -632.245    -474.926    -484.326
  H     -631.453    -476.227    -485.183
  H     -631.270    -474.578    -485.734

 3  4  5  6  7  8  9  10  11  12  22  25  29  30  31  32 0
 6-311+G(2d,p)
 ****
 33  36  37 0
 6-311+G(2d,p)
 ****
 1  2  13  14  15  16  17  18  19  20  21  23  24  26 0
 3-21G
 ****
 27  28  34  35  38  39  40  41  42  43  44  45  46  47  48 0
 3-21G
 ****


