%nproc=1
%NoSave
%Mem=1900MB
#P OB98/GEN NMR

erre ene a

0 1
  C       40.062       3.338     -93.879
  O       40.975       3.565     -92.828
  H       40.588       3.461     -94.829
  H       39.253       4.072     -93.826
  H       39.646       2.328     -93.836
  P       40.612       3.031     -91.363
  C       38.813       4.832     -90.939
  O       40.050       4.274     -90.515
  C       38.186       5.716     -89.861
  O       37.029       6.402     -90.388
  C       37.689       4.907     -88.662
  O       38.669       4.601     -87.688
  C       36.616       5.829     -88.088
  O       37.197       6.799     -87.199
  C       36.054       6.514     -89.336
  N       31.003       7.120     -89.798
  C       31.929       7.960     -89.210
  N       31.437       9.072     -88.620
  N       33.212       7.715     -89.189
  C       33.547       6.520     -89.732
  C       32.716       5.599     -90.331
  C       31.302       5.906     -90.398
  O       30.439       5.193     -90.901
  N       33.417       4.503     -90.773
  C       34.653       4.726     -90.374
  N       34.786       5.950     -89.762
  O       42.045       2.774     -90.690
  O       39.768       1.794     -91.324
  H       36.485       7.180     -86.655
  H       41.969       2.091     -90.000
  H       30.030       7.372     -89.808
  H       35.489       4.052     -90.527
  H       35.890       7.585     -89.166
  H       35.874       5.273     -87.508
  H       30.450       9.243     -88.509
  H       37.204       3.985     -89.000
  H       32.039       9.567     -87.959
  H       38.909       6.485     -89.559
  H       38.151       3.992     -91.165
  H       38.948       5.396     -91.866
  P       38.903       3.083     -87.236
  C       36.722       3.092     -85.817
  O       38.116       2.881     -85.855
  O       40.443       3.076     -86.803
  O       38.616       2.064     -88.284
  H       40.998       2.754     -87.537
  H       36.361       2.915     -84.825
  H       36.241       2.420     -86.497
  H       36.506       4.101     -86.100

 6  7  8  9  10  11  12  13  14  15  26  29  33  34 0
 6-311+G(2d,p)
 ****
 36  38  39  40  41 0
 6-311+G(2d,p)
 ****
 1  2  3  4  5  16  17  18  19  20  21  22  23  24  25 0
 3-21G
 ****
 27  28  30  31  32  35  37  42  43  44  45  46  47 0
 3-21G
 ****
 48  49 0
 3-21G
 ****


