%nproc=1
%NoSave
%Mem=1900MB
#P OB98/GEN NMR

erre ene a

0 1
  C       12.383    -523.250     204.095
  O       13.013    -524.169     204.961
  H       13.044    -523.063     203.246
  H       12.209    -522.304     204.619
  H       11.435    -523.642     203.721
  P       12.145    -524.863     206.113
  C       12.744    -527.374     206.056
  O       12.994    -526.112     206.656
  C       13.761    -528.416     206.537
  O       15.069    -528.078     206.006
  C       13.888    -528.415     208.065
  O       14.278    -529.687     208.573
  C       15.011    -527.420     208.308
  O       15.664    -527.606     209.563
  C       15.910    -527.679     207.099
  N       20.580    -525.712     206.543
  C       20.197    -526.885     207.160
  N       21.188    -527.635     207.696
  N       18.953    -527.275     207.262
  C       18.064    -526.396     206.743
  C       18.321    -525.191     206.129
  C       19.704    -524.785     205.991
  O       20.096    -523.744     205.474
  N       17.161    -524.570     205.740
  C       16.205    -525.392     206.124
  N       16.701    -526.525     206.716
  O       10.957    -525.579     205.310
  O       11.616    -523.942     207.169
  H       16.101    -528.477     209.539
  H       10.194    -525.730     205.896
  H       21.554    -525.472     206.465
  H       15.144    -525.223     205.982
  H       16.605    -528.503     207.304
  H       14.584    -526.414     208.312
  H       22.122    -527.273     207.812
  H       12.971    -528.100     208.562
  H       20.906    -528.314     208.410
  H       13.504    -529.403     206.140
  H       12.819    -527.233     204.975
  H       11.724    -527.702     206.270
  P       13.163    -530.613     209.258
  C       14.108    -533.035     208.759
  O       13.807    -532.012     209.681
  O       12.186    -530.990     208.052
  O       12.432    -529.960     210.389
  H       11.302    -530.611     208.199
  H       14.529    -533.870     209.278
  H       14.811    -532.671     208.039
  H       13.212    -533.340     208.260

 6  7  8  9  10  11  12  13  14  15  26  29  33  34 0
 6-311+G(2d,p)
 ****
 36  38  39  40  41 0
 6-311+G(2d,p)
 ****
 1  2  3  4  5  16  17  18  19  20  21  22  23  24  25 0
 3-21G
 ****
 27  28  30  31  32  35  37  42  43  44  45  46  47 0
 3-21G
 ****
 48  49 0
 3-21G
 ****


