%nproc=1
%NoSave
%Mem=1900MB
#P OB98/GEN NMR

erre ene a

0 1
  C      800.495    -171.958     242.303
  O      799.425    -172.649     241.691
  P      798.660    -172.006     240.423
  C      799.073    -174.446     239.685
  O      798.317    -173.258     239.473
  C      798.153    -175.666     239.813
  O      797.170    -175.660     238.749
  C      798.873    -177.004     239.717
  O      799.548    -177.294     240.933
  C      797.724    -177.932     239.377
  O      797.004    -178.320     240.564
  C      796.833    -177.043     238.468
  N      797.003    -177.357     237.044
  C      795.925    -178.058     236.470
  O      794.959    -178.392     237.149
  N      796.010    -178.398     235.131
  C      797.085    -178.102     234.453
  N      797.120    -178.471     233.154
  C      798.254    -177.396     235.056
  C      798.138    -177.067     236.341
  O      799.373    -170.864     239.760
  O      797.230    -171.606     241.035
  H      796.565    -177.497     240.881
  H      797.287    -170.809     241.604
  H      799.111    -177.172     234.454
  H      798.936    -176.556     236.857
  H      795.776    -177.164     238.728
  H      798.071    -178.861     238.888
  H      799.593    -176.987     238.866
  H      797.621    -175.597     240.770
  H      796.312    -178.981     232.783
  H      799.648    -174.331     240.610
  H      797.923    -178.318     232.542
  H      799.781    -174.578     238.867
  P      800.733    -178.358     240.953
  C      801.052    -177.297     243.262
  O      801.306    -178.429     242.453
  O      801.765    -178.195     239.874
  O      799.991    -179.777     240.813
  H      800.461    -180.319     240.167
  H      801.194    -177.580     244.317
  H      800.032    -176.924     243.125
  H      801.760    -176.493     243.016
  H      800.873    -172.537     243.120
  H      800.148    -171.013     242.666
  H      801.274    -171.801     241.587

 3  4  5  6  7  8  9  10  11  12  13  23  27  28  29  30  32 0
 6-311+G(2d,p)
 ****
 34  35 0
 6-311+G(2d,p)
 ****
 1  2  14  15  16  17  18  19  20  21  22  24  25  26 0
 3-21G
 ****
 31  33  36  37  38  39  40  41  42  43  44  45  46 0
 3-21G
 ****


