%nproc=1
%NoSave
%Mem=1900MB
#P OB98/GEN NMR

erre ene a

0 1
  C      -25.477     -94.358     -10.917
  O      -26.642     -94.791     -10.244
  H      -24.606     -94.628     -10.313
  H      -25.492     -93.272     -11.037
  H      -25.389     -94.842     -11.892
  P      -28.063     -94.607     -10.962
  C      -28.487     -92.283      -9.948
  O      -28.929     -93.629     -10.027
  C      -29.348     -91.491      -8.965
  O      -30.736     -91.596      -9.373
  C      -29.243     -91.984      -7.519
  O      -29.287     -90.853      -6.650
  C      -30.500     -92.814      -7.338
  O      -30.918     -92.875      -5.976
  C      -31.489     -92.087      -8.248
  N      -35.862     -94.225      -6.897
  C      -35.074     -93.307      -6.230
  N      -35.498     -92.916      -5.010
  N      -33.965     -92.817      -6.717
  C      -33.667     -93.286      -7.953
  C      -34.363     -94.194      -8.714
  C      -35.584     -94.740      -8.159
  O      -36.314     -95.564      -8.696
  N      -33.725     -94.436      -9.906
  C      -32.644     -93.677      -9.861
  N      -32.559     -92.968      -8.692
  O      -28.759     -95.874     -11.341
  O      -27.739     -93.701     -12.238
  H      -31.817     -93.270      -5.969
  H      -27.678     -94.248     -13.043
  H      -36.702     -94.577      -6.472
  H      -31.894     -93.610     -10.638
  H      -31.966     -91.235      -7.749
  H      -30.322     -93.838      -7.690
  H      -36.351     -93.238      -4.579
  H      -28.335     -92.565      -7.331
  H      -34.949     -92.225      -4.511
  H      -29.075     -90.431      -9.040
  H      -28.562     -91.837     -10.946
  H      -27.438     -92.263      -9.629
  P      -27.954     -89.986      -6.445
  C      -26.613     -92.071      -5.750
  O      -27.013     -90.752      -5.397
  O      -28.165     -88.533      -6.170
  O      -27.175     -90.202      -7.832
  H      -26.640     -89.407      -8.020
  H      -25.993     -92.474      -4.977
  H      -26.066     -92.044      -6.669
  H      -27.480     -92.687      -5.869

 6  7  8  9  10  11  12  13  14  15  26  29  33  34 0
 6-311+G(2d,p)
 ****
 36  38  39  40  41 0
 6-311+G(2d,p)
 ****
 1  2  3  4  5  16  17  18  19  20  21  22  23  24  25 0
 3-21G
 ****
 27  28  30  31  32  35  37  42  43  44  45  46  47 0
 3-21G
 ****
 48  49 0
 3-21G
 ****


