%nproc=1
%NoSave
%Mem=1900MB
#P OB98/GEN NMR

erre ene a

0 1
  C      567.364      98.987    -416.226
  O      566.459      98.738    -417.292
  H      568.371      98.720    -416.555
  H      567.096      98.374    -415.362
  H      567.341     100.048    -415.960
  P      564.920      99.081    -417.015
  C      564.560     101.460    -418.033
  O      564.836     100.675    -416.875
  C      563.312     102.322    -417.810
  O      563.611     103.314    -416.783
  C      562.864     103.094    -419.056
  O      561.435     103.285    -418.971
  C      563.565     104.428    -418.871
  O      563.038     105.407    -419.737
  C      563.355     104.613    -417.370
  N      563.544     109.239    -415.209
  C      562.506     108.492    -415.630
  N      562.534     107.259    -416.182
  C      563.797     106.803    -416.265
  C      564.957     107.444    -415.863
  C      564.793     108.734    -415.312
  N      565.858     109.508    -414.888
  N      566.068     106.665    -416.112
  C      565.583     105.558    -416.658
  N      564.212     105.607    -416.767
  O      564.685      98.558    -415.521
  O      563.946      98.485    -417.976
  H      563.472     106.268    -419.593
  H      564.317      97.654    -415.539
  H      561.521     108.935    -415.510
  H      566.173     104.710    -416.980
  H      562.322     104.886    -417.138
  H      564.632     104.345    -419.104
  H      563.103     102.586    -420.004
  H      562.504     101.693    -417.417
  H      564.396     100.776    -418.880
  H      565.426     102.100    -418.251
  H      565.653     110.424    -414.515
  H      566.795     109.141    -414.976
  P      560.458     102.095    -419.435
  C      560.231     101.218    -416.976
  O      560.510     100.923    -418.336
  O      561.273     101.450    -420.655
  O      559.092     102.515    -419.877
  H      560.653     101.040    -421.283
  H      560.312     100.324    -416.393
  H      559.239     101.610    -416.892
  H      560.932     101.943    -416.617

 6  7  8  9  10  11  12  13  14  15  25  28  32  33  34  35 0
 6-311+G(2d,p)
 ****
 36  37  40 0
 6-311+G(2d,p)
 ****
 1  2  3  4  5  16  17  18  19  20  21  22  23  24 0
 3-21G
 ****
 26  27  29  30  31  38  39 41  42  43  44  45  46  47  48 0
 3-21G
 ****


