%nproc=1
%NoSave
%Mem=1900MB
#P OB98/GEN NMR

erre ene a

0 1
  C       24.364     -20.016      45.166
  O       23.204     -20.768      44.873
  H       24.406     -19.845      46.245
  H       24.336     -19.049      44.658
  H       25.260     -20.568      44.866
  P       22.850     -21.057      43.338
  C       22.038     -19.631      41.340
  O       22.250     -19.696      42.742
  C       20.849     -18.722      41.008
  O       19.614     -19.455      41.252
  C       20.792     -17.440      41.856
  O       20.166     -16.428      41.058
  C       19.881     -17.871      42.988
  O       19.415     -16.768      43.724
  C       18.849     -18.697      42.214
  N       18.055     -19.554      43.079
  C       16.781     -19.085      43.412
  O       16.389     -17.998      42.989
  N       15.995     -19.845      44.239
  C       16.465     -20.942      44.745
  N       15.640     -21.640      45.570
  C       17.827     -21.442      44.466
  C       18.559     -20.708      43.630
  O       22.023     -22.272      43.080
  O       24.280     -21.164      42.626
  H       20.158     -16.308      44.176
  H       24.483     -22.098      42.433
  H       18.178     -22.353      44.928
  H       19.572     -20.993      43.365
  H       18.170     -18.043      41.651
  H       20.421     -18.510      43.693
  H       21.778     -17.105      42.188
  H       20.872     -18.488      39.937
  H       14.719     -21.256      45.742
  H       21.839     -20.649      40.989
  H       15.903     -22.495      46.037
  H       22.937     -19.257      40.839
  P       20.959     -15.160      40.481
  C       22.151     -13.066      41.403
  O       21.641     -14.365      41.693
  O       20.145     -14.298      39.570
  O       22.209     -15.776      39.691
  H       22.439     -15.187      38.948
  H       22.578     -12.644      42.289
  H       21.356     -12.440      41.057
  H       22.903     -13.139      40.645

 6  7  8  9  10  11  12  13  14  15  16  26  30  31  32  33  35 0
 6-311+G(2d,p)
 ****
 37  38 0
 6-311+G(2d,p)
 ****
 1  2  3  4  5  17  18  19  20  21  22  23  24  25 0
 3-21G
 ****
 27  28  29  34  36  39  40  41  42  43  44  45  46 0
 3-21G
 ****


