%nproc=1
%NoSave
%Mem=1900MB
#P OB98/GEN NMR

erre ene a

0 1
  C     -143.848    -111.664      48.055
  O     -142.724    -110.873      47.724
  H     -144.192    -111.383      49.055
  H     -143.589    -112.725      48.060
  H     -144.660    -111.481      47.345
  P     -141.925    -111.193      46.372
  C     -143.571    -111.169      44.389
  O     -142.684    -110.405      45.196
  C     -144.400    -110.257      43.481
  O     -145.202    -109.380      44.317
  C     -143.553    -109.385      42.548
  O     -144.232    -109.277      41.293
  C     -143.540    -108.050      43.264
  O     -143.285    -106.981      42.371
  C     -144.918    -108.022      43.930
  N     -144.932    -107.112      45.079
  C     -145.604    -105.897      44.903
  O     -146.160    -105.642      43.831
  N     -145.580    -104.972      45.916
  C     -144.895    -105.210      46.991
  N     -144.880    -104.236      47.938
  C     -144.147    -106.467      47.208
  C     -144.210    -107.365      46.222
  O     -141.664    -112.636      46.088
  O     -140.559    -110.371      46.537
  H     -143.098    -106.166      42.885
  H     -139.882    -110.932      46.960
  H     -143.587    -106.616      48.120
  H     -143.684    -108.312      46.290
  H     -145.691    -107.702      43.220
  H     -142.748    -108.048      44.024
  H     -142.544    -109.778      42.393
  H     -145.103    -110.879      42.909
  H     -145.388    -103.381      47.734
  H     -144.237    -111.728      45.055
  H     -144.350    -104.289      48.797
  H     -143.002    -111.882      43.783
  P     -143.471    -109.607      39.918
  C     -143.412    -112.156      39.669
  O     -144.086    -110.956      39.293
  O     -141.980    -109.586      40.009
  O     -143.989    -108.470      38.909
  H     -143.290    -108.277      38.255
  H     -143.891    -112.994      39.207
  H     -143.448    -112.267      40.733
  H     -142.392    -112.107      39.349

 6  7  8  9  10  11  12  13  14  15  16  26  30  31  32  33  35 0
 6-311+G(2d,p)
 ****
 37  38 0
 6-311+G(2d,p)
 ****
 1  2  3  4  5  17  18  19  20  21  22  23  24  25 0
 3-21G
 ****
 27  28  29  34  36  39  40  41  42  43  44  45  46 0
 3-21G
 ****


