%nproc=1
%NoSave
%Mem=1900MB
#P OB98/GEN NMR

erre ene a

0 1
  C      -86.203     398.394       8.090
  O      -85.139     397.492       8.319
  H      -85.873     399.401       8.356
  H      -87.055     398.130       8.721
  H      -86.502     398.391       7.038
  P      -85.250     395.997       7.756
  C      -82.680     395.752       7.777
  O      -83.921     395.242       8.243
  C      -81.522     395.105       8.542
  O      -81.413     395.758       9.843
  C      -81.717     393.596       8.792
  O      -80.438     392.955       8.755
  C      -82.260     393.593      10.207
  O      -82.105     392.341      10.828
  C      -81.445     394.719      10.836
  N      -82.033     395.165      12.095
  C      -81.467     394.671      13.266
  O      -80.522     393.880      13.285
  N      -82.070     395.051      14.434
  C      -83.225     395.771      14.534
  O      -83.764     396.016      15.605
  C      -83.809     396.225      13.262
  C      -83.194     395.912      12.121
  O      -85.540     395.867       6.296
  O      -86.376     395.313       8.664
  H      -82.489     392.364      11.724
  H      -86.751     394.533       8.211
  H      -81.663     394.708      15.291
  H      -84.733     396.786      13.309
  H      -83.607     396.215      11.162
  H      -80.410     394.399      11.016
  H      -83.329     393.837      10.203
  H      -82.391     393.126       8.071
  H      -80.587     395.298       8.008
  H      -82.672     396.837       7.939
  H      -82.580     395.554       6.705
  P      -80.133     391.725       7.771
  C      -77.888     392.700       6.995
  O      -78.548     391.563       7.540
  O      -80.932     391.737       6.505
  O      -80.512     390.426       8.636
  H      -81.040     389.819       8.084
  H      -76.845     392.487       6.883
  H      -78.013     393.534       7.653
  H      -78.310     392.933       6.040

 6  7  8  9  10  11  12  13  14  15  16  26  31  32  33  34  35 0
 6-311+G(2d,p)
 ****
 36  37 0
 6-311+G(2d,p)
 ****
 1  2  3  4  5  17  18  19  20  21  22  23  24  25 0
 3-21G
 ****
 27  28  29  30  38  39  40  41  42  43  44  45 0
 3-21G
 ****


