%nproc=1
%NoSave
%Mem=1900MB
#P OB98/GEN NMR

erre ene a

0 1
  C     -849.520     330.609      58.742
  O     -848.108     330.672      58.847
  P     -847.335     331.709      57.895
  C     -845.856     332.633      59.822
  O     -846.834     332.919      58.831
  C     -844.972     333.856      60.080
  O     -844.272     334.195      58.851
  C     -845.733     335.108      60.537
  O     -844.878     335.801      61.454
  C     -845.884     335.874      59.233
  O     -846.214     337.245      59.409
  C     -844.538     335.592      58.592
  N     -843.241     338.983      54.991
  C     -843.056     338.976      56.323
  N     -843.420     338.035      57.221
  C     -844.032     337.005      56.608
  C     -844.303     336.878      55.254
  C     -843.879     337.935      54.425
  N     -844.079     337.933      53.057
  N     -844.965     335.692      55.002
  C     -845.091     335.116      56.176
  N     -844.523     335.865      57.172
  O     -848.515     332.372      57.047
  O     -846.286     331.099      57.017
  H     -846.408     337.660      58.543
  H     -848.247     332.522      56.122
  H     -842.549     339.845      56.736
  H     -845.594     334.179      56.361
  H     -843.728     336.180      59.054
  H     -846.697     335.425      58.649
  H     -846.682     334.882      61.039
  H     -844.212     333.585      60.825
  H     -845.214     331.816      59.477
  H     -843.922     338.813      52.584
  H     -844.731     337.255      52.686
  H     -846.354     332.307      60.741
  P     -845.537     336.641      62.649
  C     -844.785     334.797      64.268
  O     -845.882     335.528      63.762
  O     -846.995     336.949      62.042
  O     -844.787     337.845      63.091
  H     -847.415     336.138      61.712
  H     -845.144     334.147      65.074
  H     -844.021     335.471      64.667
  H     -844.358     334.167      63.484
  H     -849.897     329.881      59.430
  H     -849.791     330.331      57.745
  H     -849.938     331.567      58.972

 3  4  5  6  7  8  9  10  11  12  22  25  29  30  31  32 0
 6-311+G(2d,p)
 ****
 33  36  37 0
 6-311+G(2d,p)
 ****
 1  2  13  14  15  16  17  18  19  20  21  23  24  26 0
 3-21G
 ****
 27  28  34  35  38  39  40  41  42  43  44  45  46  47  48 0
 3-21G
 ****


