%nproc=1
%NoSave
%Mem=1900MB
#P OB98/GEN NMR

erre ene a

0 1
  C       90.576     116.432      -0.316
  O       91.703     116.067      -1.090
  H       89.675     116.062      -0.813
  H       90.514     117.521      -0.239
  H       90.639     115.989       0.682
  P       93.143     116.363      -0.456
  C       94.749     118.439      -0.375
  O       93.483     117.907      -0.745
  C       95.083     119.644      -1.251
  O       95.230     119.260      -2.633
  C       93.995     120.704      -1.283
  O       93.892     121.419      -0.073
  C       94.463     121.545      -2.462
  O       95.528     122.426      -2.077
  C       94.981     120.451      -3.429
  N       94.053     120.187      -4.520
  C       94.575     120.335      -5.812
  O       95.751     120.659      -5.973
  N       93.739     120.142      -6.884
  C       92.503     119.804      -6.687
  N       91.727     119.637      -7.790
  C       91.922     119.611      -5.345
  C       92.742     119.823      -4.318
  O       94.129     115.591      -1.451
  O       93.297     115.986       0.982
  H       96.321     121.866      -1.967
  H       94.008     115.834      -2.384
  H       90.887     119.321      -5.229
  H       92.396     119.704      -3.300
  H       95.944     120.747      -3.865
  H       93.664     122.168      -2.864
  H       93.033     120.250      -1.556
  H       96.040     120.060      -0.907
  H       92.154     119.798      -8.694
  H       95.530     117.677      -0.451
  H       90.744     119.407      -7.760
  H       94.685     118.742       0.675
  P       92.495     122.062       0.378
  C       90.980     123.958      -0.483
  O       92.257     123.333      -0.574
  O       92.369     122.348       1.837
  O       91.413     121.018      -0.175
  H       91.431     120.887      -1.140
  H       90.939     124.787      -1.159
  H       90.823     124.305       0.517
  H       90.218     123.252      -0.739

 6  7  8  9  10  11  12  13  14  15  16  26  30  31  32  33  35 0
 6-311+G(2d,p)
 ****
 37  38 0
 6-311+G(2d,p)
 ****
 1  2  3  4  5  17  18  19  20  21  22  23  24  25 0
 3-21G
 ****
 27  28  29  34  36  39  40  41  42  43  44  45  46 0
 3-21G
 ****


