%nproc=1
%NoSave
%Mem=1900MB
#P OB98/GEN NMR

erre ene a

0 1
  C      -18.362     777.254    -152.066
  O      -18.155     776.058    -151.339
  P      -17.571     774.750    -152.067
  C      -19.217     772.811    -152.740
  O      -18.731     774.118    -152.968
  C      -20.246     772.855    -151.605
  O      -21.203     773.906    -151.831
  C      -21.020     771.539    -151.495
  O      -20.415     770.679    -150.534
  C      -22.404     771.999    -151.104
  O      -22.477     772.254    -149.679
  C      -22.528     773.330    -151.895
  N      -22.931     773.254    -153.315
  C      -24.250     773.487    -153.670
  O      -25.137     773.789    -152.865
  N      -24.536     773.346    -155.003
  C      -23.646     773.037    -155.991
  O      -23.953     772.670    -157.117
  C      -22.234     773.066    -155.589
  C      -21.933     773.149    -154.291
  O      -17.438     773.702    -150.859
  O      -16.278     774.930    -152.789
  H      -21.769     772.889    -149.475
  H      -16.516     773.662    -150.537
  H      -25.532     773.363    -155.258
  H      -21.482     772.960    -156.360
  H      -20.906     773.149    -153.969
  H      -23.226     774.019    -151.391
  H      -23.155     771.229    -151.311
  H      -21.071     771.047    -152.475
  H      -19.720     773.057    -150.658
  H      -18.393     772.139    -152.487
  H      -19.681     772.417    -153.653
  P      -20.599     769.087    -150.661
  C      -21.851     768.167    -148.616
  O      -21.975     768.764    -149.898
  O      -19.422     768.263    -150.243
  O      -20.956     768.887    -152.211
  H      -20.155     768.631    -152.706
  H      -22.829     768.167    -148.134
  H      -21.146     768.720    -147.992
  H      -21.498     767.132    -148.735
  H      -18.753     778.006    -151.412
  H      -19.058     777.074    -152.859
  H      -17.432     777.587    -152.477

 3  4  5  6  7  8  9  10  11  12  13  23  28  29  30  31  32 0
 6-311+G(2d,p)
 ****
 33  34 0
 6-311+G(2d,p)
 ****
 1  2  14  15  16  17  18  19  20  21  22  24  25  26  27 0
 3-21G
 ****
 35  36  37  38  39  40  41  42  43  44  45 0
 3-21G
 ****


