%nproc=1
%NoSave
%Mem=1900MB
#P OB98/GEN NMR

erre ene a

0 1
  C      -16.711     173.658    1569.648
  O      -16.292     172.310    1569.489
  H      -17.226     173.976    1568.731
  H      -15.853     174.306    1569.805
  H      -17.421     173.736    1570.478
  P      -15.657     171.545    1570.735
  C      -14.042     173.459    1571.399
  O      -14.175     172.120    1570.928
  C      -12.575     173.836    1571.522
  O      -11.893     172.909    1572.434
  C      -11.794     173.746    1570.201
  O      -12.084     174.868    1569.372
  C      -10.373     173.682    1570.704
  O       -9.873     174.999    1571.044
  C      -10.524     172.802    1571.968
  N      -10.152     171.397    1571.744
  C       -8.769     171.113    1571.765
  O       -7.918     171.987    1571.898
  N       -8.431     169.806    1571.556
  C       -9.311     168.796    1571.241
  O       -8.954     167.667    1570.972
  C      -10.732     169.162    1571.217
  C      -11.088     170.430    1571.475
  O      -15.758     170.060    1570.711
  O      -16.439     172.171    1571.993
  H       -8.965     174.862    1571.386
  H      -17.103     171.512    1572.329
  H       -7.459     169.579    1571.550
  H      -11.464     168.395    1570.979
  H      -12.134     170.709    1571.446
  H       -9.888     173.196    1572.784
  H       -9.689     173.262    1569.965
  H      -12.036     172.813    1569.671
  H      -12.490     174.864    1571.956
  H      -14.522     173.534    1572.391
  H      -14.573     174.134    1570.709
  P      -12.278     174.669    1567.797
  C       -9.766     174.246    1567.549
  O      -10.881     174.982    1567.089
  O      -13.471     175.343    1567.201
  O      -12.426     173.060    1567.627
  H      -13.289     172.857    1567.251
  H       -8.894     174.541    1567.003
  H       -9.943     173.201    1567.401
  H       -9.617     174.438    1568.591

 6  7  8  9  10  11  12  13  14  15  16  26  31  32  33  34  35 0
 6-311+G(2d,p)
 ****
 36  37 0
 6-311+G(2d,p)
 ****
 1  2  3  4  5  17  18  19  20  21  22  23  24  25 0
 3-21G
 ****
 27  28  29  30  38  39  40  41  42  43  44  45 0
 3-21G
 ****


