%nproc=1
%NoSave
%Mem=1900MB
#P OB98/GEN NMR

erre ene a

0 1
  C     -146.417     343.624     -64.979
  O     -147.784     343.676     -64.624
  H     -146.341     343.291     -66.018
  H     -145.881     342.916     -64.345
  H     -145.964     344.616     -64.897
  P     -148.171     344.071     -63.120
  C     -147.665     341.626     -62.470
  O     -148.585     342.712     -62.375
  C     -147.933     340.608     -61.351
  O     -147.689     341.262     -60.084
  C     -149.387     340.099     -61.359
  O     -149.486     338.677     -61.378
  C     -150.021     340.834     -60.184
  O     -151.129     340.176     -59.600
  C     -148.836     341.061     -59.236
  N     -149.011     342.189     -58.324
  C     -149.931     342.036     -57.288
  O     -150.588     341.017     -57.064
  N     -150.082     343.125     -56.468
  C     -149.423     344.315     -56.581
  O     -149.602     345.254     -55.806
  C     -148.486     344.423     -57.707
  C     -148.324     343.375     -58.514
  O     -149.158     345.185     -62.980
  O     -146.768     344.444     -62.441
  H     -151.884     340.267     -60.215
  H     -146.679     345.414     -62.383
  H     -150.738     343.022     -55.707
  H     -147.956     345.358     -57.830
  H     -147.636     343.417     -59.354
  H     -148.657     340.169     -58.631
  H     -150.381     341.814     -60.542
  H     -149.899     340.402     -62.281
  H     -147.219     339.784     -61.444
  H     -146.651     342.037     -62.372
  H     -147.762     341.141     -63.444
  P     -148.696     337.725     -62.389
  C     -150.197     338.184     -64.490
  O     -149.714     337.254     -63.529
  O     -147.854     336.672     -61.754
  O     -147.708     338.746     -63.158
  H     -146.893     338.240     -63.370
  H     -150.862     337.687     -65.165
  H     -149.373     338.592     -65.037
  H     -150.720     338.973     -63.991

 6  7  8  9  10  11  12  13  14  15  16  26  31  32  33  34  35 0
 6-311+G(2d,p)
 ****
 36  37 0
 6-311+G(2d,p)
 ****
 1  2  3  4  5  17  18  19  20  21  22  23  24  25 0
 3-21G
 ****
 27  28  29  30  38  39  40  41  42  43  44  45 0
 3-21G
 ****


