%nproc=1
%NoSave
%Mem=1900MB
#P OB98/GEN NMR

erre ene a

0 1
  C      212.343     138.016    -290.091
  O      211.901     137.038    -289.170
  H      212.535     137.528    -291.050
  H      213.274     138.469    -289.741
  H      211.581     138.785    -290.236
  P      211.453     137.505    -287.702
  C      209.395     138.911    -288.334
  O      209.859     137.703    -287.748
  C      207.891     139.074    -288.111
  O      207.515     140.434    -288.442
  C      207.037     138.128    -288.961
  O      205.917     137.704    -288.183
  C      206.562     139.012    -290.099
  O      205.332     138.558    -290.661
  C      206.456     140.374    -289.417
  N      203.882     143.302    -292.631
  C      203.434     142.340    -291.747
  N      202.105     142.102    -291.728
  N      204.222     141.667    -290.949
  C      205.527     142.018    -291.060
  C      206.096     142.949    -291.895
  C      205.214     143.679    -292.784
  O      205.552     144.531    -293.599
  N      207.456     142.999    -291.735
  C      207.711     142.096    -290.806
  N      206.574     141.466    -290.372
  O      212.204     138.670    -287.143
  O      211.634     136.194    -286.806
  H      204.711     138.412    -289.915
  H      212.465     136.235    -286.298
  H      203.233     143.783    -293.227
  H      208.693     141.855    -290.418
  H      205.498     140.508    -288.897
  H      207.319     139.028    -290.895
  H      201.435     142.592    -292.302
  H      207.593     137.256    -289.319
  H      201.751     141.416    -291.071
  H      207.683     138.938    -287.042
  H      209.606     138.875    -289.408
  H      209.934     139.759    -287.895
  P      205.781     136.152    -287.808
  C      207.068     136.000    -285.579
  O      205.790     136.020    -286.208
  O      206.708     135.229    -288.528
  O      204.248     135.834    -288.170
  H      204.177     134.896    -288.437
  H      206.943     135.909    -284.520
  H      207.589     136.908    -285.800
  H      207.632     135.167    -285.944

 6  7  8  9  10  11  12  13  14  15  26  29  33  34 0
 6-311+G(2d,p)
 ****
 36  38  39  40  41 0
 6-311+G(2d,p)
 ****
 1  2  3  4  5  16  17  18  19  20  21  22  23  24  25 0
 3-21G
 ****
 27  28  30  31  32  35  37  42  43  44  45  46  47 0
 3-21G
 ****
 48  49 0
 3-21G
 ****


