%nproc=1
%NoSave
%Mem=1900MB
#P OB98/GEN NMR

erre ene a

0 1
  C       27.552    -537.791     943.664
  O       28.148    -539.012     943.274
  H       26.984    -537.937     944.585
  H       28.342    -537.060     943.855
  H       26.897    -537.408     942.877
  P       27.185    -540.137     942.657
  C       29.228    -541.471     941.770
  O       28.000    -540.825     941.457
  C       29.715    -542.298     940.577
  O       28.761    -543.377     940.355
  C       29.850    -541.509     939.271
  O       31.017    -541.977     938.580
  C       28.618    -541.917     938.486
  O       28.789    -541.790     937.077
  C       28.428    -543.356     938.953
  N       25.403    -545.831     935.697
  C       26.747    -545.769     935.805
  N       27.475    -545.123     936.742
  C       26.677    -544.559     937.662
  C       25.287    -544.546     937.686
  C       24.646    -545.204     936.622
  N       23.280    -545.222     936.456
  N       24.838    -543.809     938.764
  C       25.919    -543.369     939.362
  N       27.058    -543.795     938.732
  O       26.071    -539.258     941.901
  O       26.574    -541.077     943.642
  H       28.992    -540.854     936.869
  H       25.357    -539.030     942.522
  H       27.317    -546.292     935.044
  H       25.945    -542.718     940.226
  H       29.088    -544.064     938.428
  H       27.771    -541.289     938.785
  H       29.920    -540.424     939.412
  H       30.668    -542.767     940.853
  H       29.074    -542.129     942.626
  H       22.914    -545.628     935.611
  H       22.709    -544.665     937.084
  H       29.975    -540.713     942.032
  P       32.403    -541.239     938.881
  C       33.675    -543.363     939.694
  O       33.190    -542.061     940.008
  O       31.948    -539.904     939.648
  O       33.204    -540.916     937.658
  H       32.558    -539.173     939.444
  H       34.173    -543.773     940.547
  H       34.362    -543.300     938.876
  H       32.854    -543.994     939.423

 6  7  8  9  10  11  12  13  14  15  25  28  32  33  34  35 0
 6-311+G(2d,p)
 ****
 36  39  40 0
 6-311+G(2d,p)
 ****
 1  2  3  4  5  16  17  18  19  20  21  22  23  24 0
 3-21G
 ****
 26  27  29  30  31  37  38  41  42  43  44  45  46  47 0
 3-21G
 ****
 48 0
 3-21G
 ****


