%nproc=1
%NoSave
%Mem=1900MB
#P OB98/GEN NMR

erre ene a

0 1
  C     -412.478    -356.603    -199.627
  O     -411.805    -355.491    -200.194
  P     -410.248    -355.583    -200.533
  C     -410.608    -356.874    -202.727
  O     -410.015    -356.895    -201.432
  C     -409.663    -357.508    -203.752
  O     -408.535    -356.638    -203.993
  C     -409.060    -358.838    -203.301
  O     -410.019    -359.878    -203.442
  C     -407.866    -358.947    -204.247
  O     -408.261    -359.436    -205.531
  C     -407.410    -357.479    -204.348
  N     -402.511    -358.539    -203.421
  C     -403.409    -359.113    -204.236
  N     -404.724    -358.799    -204.400
  C     -405.061    -357.787    -203.590
  C     -404.263    -357.124    -202.683
  C     -402.905    -357.518    -202.620
  N     -401.952    -356.896    -201.852
  N     -404.982    -356.156    -202.009
  C     -406.202    -356.249    -202.497
  N     -406.283    -357.172    -203.507
  O     -409.337    -355.454    -199.359
  O     -410.015    -354.392    -201.571
  H     -408.980    -358.853    -205.857
  H     -409.361    -353.766    -201.193
  H     -403.044    -359.938    -204.846
  H     -407.051    -355.644    -202.172
  H     -407.137    -357.212    -205.380
  H     -407.095    -359.624    -203.859
  H     -408.717    -358.754    -202.278
  H     -410.204    -357.609    -204.683
  H     -410.811    -355.839    -203.000
  H     -401.001    -357.161    -201.992
  H     -402.160    -355.963    -201.481
  H     -411.555    -357.424    -202.697
  P     -409.783    -361.264    -202.678
  C     -411.782    -361.062    -201.088
  O     -410.369    -361.106    -201.202
  O     -408.398    -361.821    -202.754
  O     -410.829    -362.261    -203.363
  H     -410.467    -363.161    -203.385
  H     -412.151    -360.080    -201.381
  H     -412.055    -361.239    -200.051
  H     -412.241    -361.837    -201.724
  H     -413.507    -356.355    -199.471
  H     -412.026    -356.854    -198.690
  H     -412.409    -357.439    -200.292

 3  4  5  6  7  8  9  10  11  12  22  25  29  30  31  32 0
 6-311+G(2d,p)
 ****
 33  36  37 0
 6-311+G(2d,p)
 ****
 1  2  13  14  15  16  17  18  19  20  21  23  24  26 0
 3-21G
 ****
 27  28  34  35  38  39  40  41  42  43  44  45  46  47  48 0
 3-21G
 ****


