%nproc=1
%NoSave
%Mem=1900MB
#P OB98/GEN NMR

erre ene a

0 1
  C       87.510     111.276     -79.627
  O       86.467     110.425     -79.194
  H       87.517     111.289     -80.721
  H       88.476     110.899     -79.278
  H       87.356     112.296     -79.265
  P       86.138     110.345     -77.626
  C       87.502     109.829     -75.497
  O       87.422     109.706     -76.911
  C       88.275     108.646     -74.916
  O       87.558     107.415     -75.155
  C       89.653     108.449     -75.536
  O       90.579     109.393     -75.036
  C       89.939     107.006     -75.145
  O       90.407     106.926     -73.790
  C       88.540     106.362     -75.287
  N       88.373     105.638     -76.545
  C       88.983     104.387     -76.627
  O       89.660     103.904     -75.718
  N       88.810     103.716     -77.808
  C       88.203     104.208     -78.927
  O       88.154     103.601     -79.992
  C       87.600     105.542     -78.793
  C       87.711     106.185     -77.625
  O       84.837     109.710     -77.270
  O       86.189     111.875     -77.152
  H       89.634     107.095     -73.222
  H       85.281     112.202     -77.013
  H       89.253     102.816     -77.892
  H       87.097     105.960     -79.654
  H       87.278     107.171     -77.510
  H       88.360     105.663     -74.460
  H       90.700     106.550     -75.778
  H       89.587     108.513     -76.629
  H       88.351     108.786     -73.827
  H       86.485     109.836     -75.085
  H       87.993     110.775     -75.248
  P       91.677     110.029     -76.011
  C       93.866     109.290     -77.143
  O       92.752     108.886     -76.349
  O       92.260     111.328     -75.558
  O       90.896     110.212     -77.396
  H       90.884     111.157     -77.641
  H       94.512     108.452     -77.304
  H       94.404     110.063     -76.635
  H       93.518     109.658     -78.085

 6  7  8  9  10  11  12  13  14  15  16  26  31  32  33  34  35 0
 6-311+G(2d,p)
 ****
 36  37 0
 6-311+G(2d,p)
 ****
 1  2  3  4  5  17  18  19  20  21  22  23  24  25 0
 3-21G
 ****
 27  28  29  30  38  39  40  41  42  43  44  45 0
 3-21G
 ****


