%nproc=1
%NoSave
%Mem=1900MB
#P OB98/GEN NMR

erre ene a

0 1
  C      597.211     310.898     498.175
  O      596.654     311.809     499.110
  P      597.669     312.661     500.013
  C      596.684     311.908     502.293
  O      596.916     312.983     501.392
  C      595.288     312.006     502.911
  O      595.171     313.274     503.609
  C      594.135     311.930     501.896
  O      593.061     311.247     502.545
  C      593.807     313.396     501.680
  O      592.542     313.621     501.088
  C      593.985     313.924     503.105
  N      591.465     318.372     503.241
  C      591.035     317.089     503.273
  N      591.770     315.955     503.232
  C      593.080     316.243     503.181
  C      593.667     317.495     503.126
  C      592.796     318.600     503.163
  N      593.243     319.904     503.125
  N      595.041     317.389     503.049
  C      595.273     316.094     503.048
  N      594.127     315.364     503.149
  O      597.703     314.080     499.276
  O      599.041     312.069     500.153
  H      592.572     313.396     500.134
  H      598.601     314.459     499.283
  H      589.957     316.958     503.326
  H      596.256     315.640     502.970
  H      593.140     313.647     503.748
  H      594.555     313.836     501.010
  H      594.402     311.395     500.976
  H      595.183     311.209     503.658
  H      597.421     311.950     503.104
  H      592.544     320.613     502.953
  H      594.209     320.056     502.860
  H      596.819     310.956     501.770
  P      592.708     309.746     502.097
  C      590.452     310.075     503.281
  O      591.607     309.268     503.173
  O      594.012     308.965     502.601
  O      592.386     309.554     500.655
  H      594.216     309.169     503.535
  H      589.749     309.591     503.966
  H      589.967     310.188     502.302
  H      590.713     311.056     503.687
  H      596.423     310.403     497.647
  H      597.804     310.173     498.693
  H      597.826     311.431     497.481

 3  4  5  6  7  8  9  10  11  12  22  25  29  30  31  32 0
 6-311+G(2d,p)
 ****
 33  36  37 0
 6-311+G(2d,p)
 ****
 1  2  13  14  15  16  17  18  19  20  21  23  24  26 0
 3-21G
 ****
 27  28  34  35  38  39  40  41  42  43  44  45  46  47  48 0
 3-21G
 ****


