%nproc=1
%NoSave
%Mem=1900MB
#P OB98/GEN NMR

erre ene a

0 1
  C      153.868      95.984     326.497
  O      154.700      95.154     325.701
  P      155.331      95.691     324.326
  C      154.310      94.941     322.089
  O      154.113      95.690     323.282
  C      154.266      93.443     322.396
  O      153.182      93.196     323.325
  C      153.986      92.523     321.203
  O      155.136      92.191     320.434
  C      153.483      91.277     321.920
  O      154.597      90.534     322.449
  C      152.653      91.869     323.064
  N      147.962      90.149     324.185
  C      149.178      89.881     324.717
  N      150.385      90.365     324.349
  C      150.253      91.250     323.345
  C      149.080      91.632     322.707
  C      147.892      91.041     323.169
  N      146.655      91.333     322.639
  N      149.351      92.550     321.709
  C      150.654      92.728     321.756
  N      151.243      91.973     322.736
  O      156.561      94.976     323.891
  O      155.577      97.252     324.587
  H      154.225      89.847     323.039
  H      156.192      97.610     323.916
  H      149.183      89.177     325.544
  H      151.211      93.388     321.104
  H      152.740      91.296     323.991
  H      152.933      90.596     321.260
  H      153.188      92.922     320.571
  H      155.209      93.164     322.890
  H      155.293      95.195     321.682
  H      145.848      90.965     323.115
  H      146.581      92.114     321.994
  H      153.548      95.212     321.351
  P      154.889      91.755     318.902
  C      155.740      89.292     318.628
  O      154.673      90.166     318.933
  O      155.919      92.245     317.949
  O      153.417      92.322     318.609
  H      152.698      91.888     319.096
  H      155.433      88.266     318.859
  H      156.623      89.538     319.220
  H      155.980      89.356     317.560
  H      153.552      95.444     327.365
  H      153.011      96.280     325.929
  H      154.414      96.854     326.797

 3  4  5  6  7  8  9  10  11  12  22  25  29  30  31  32 0
 6-311+G(2d,p)
 ****
 33  36  37 0
 6-311+G(2d,p)
 ****
 1  2  13  14  15  16  17  18  19  20  21  23  24  26 0
 3-21G
 ****
 27  28  34  35  38  39  40  41  42  43  44  45  46  47  48 0
 3-21G
 ****


