%nproc=1
%NoSave
%Mem=1900MB
#P OB98/GEN NMR

erre ene a

0 1
  C     -219.412     -23.369    -197.080
  O     -219.303     -22.976    -195.723
  P     -218.699     -21.532    -195.390
  C     -220.965     -20.345    -194.917
  O     -219.818     -20.441    -195.751
  C     -221.083     -18.937    -194.330
  O     -221.157     -17.965    -195.417
  C     -222.322     -18.730    -193.448
  O     -221.962     -17.808    -192.405
  C     -223.299     -18.065    -194.401
  O     -224.344     -17.371    -193.740
  C     -222.335     -17.165    -195.186
  N     -222.909     -16.674    -196.437
  C     -224.097     -15.953    -196.357
  O     -224.684     -15.710    -195.303
  N     -224.639     -15.559    -197.551
  C     -224.172     -15.885    -198.792
  O     -224.769     -15.603    -199.823
  C     -222.916     -16.650    -198.817
  C     -222.348     -17.002    -197.659
  O     -217.589     -21.328    -196.528
  O     -218.123     -21.397    -194.018
  H     -224.970     -18.037    -193.402
  H     -216.702     -21.518    -196.174
  H     -225.495     -15.028    -197.511
  H     -222.503     -16.907    -199.784
  H     -221.431     -17.582    -197.647
  H     -222.026     -16.312    -194.569
  H     -223.751     -18.824    -195.047
  H     -222.715     -19.657    -193.017
  H     -220.170     -18.719    -193.761
  H     -220.878     -21.067    -194.104
  H     -221.861     -20.599    -195.496
  P     -222.770     -17.891    -191.020
  C     -221.637     -20.128    -190.284
  O     -222.823     -19.438    -190.609
  O     -224.260     -17.571    -191.520
  O     -222.274     -16.939    -189.977
  H     -224.483     -18.035    -192.345
  H     -220.914     -19.479    -189.779
  H     -221.189     -20.526    -191.197
  H     -221.884     -20.963    -189.619
  H     -219.831     -24.352    -197.134
  H     -218.441     -23.370    -197.530
  H     -220.046     -22.682    -197.600

 3  4  5  6  7  8  9  10  11  12  13  23  28  29  30  31  32 0
 6-311+G(2d,p)
 ****
 33  34 0
 6-311+G(2d,p)
 ****
 1  2  14  15  16  17  18  19  20  21  22  24  25  26 0
 3-21G
 ****
 27  35  36  37  38  39  40  41  42  43  44  45 0
 3-21G
 ****


