%nproc=1
%NoSave
%Mem=1900MB
#P OB98/GEN NMR

erre ene a

0 1
  C     -158.974     828.042    -390.683
  O     -158.645     829.393    -391.019
  P     -159.885     830.393    -391.222
  C     -159.092     832.535    -389.962
  O     -159.310     831.896    -391.217
  C     -158.251     833.794    -390.133
  O     -156.884     833.500    -390.478
  C     -158.767     834.722    -391.244
  O     -159.854     835.495    -390.760
  C     -157.523     835.578    -391.528
  O     -157.398     836.663    -390.593
  C     -156.373     834.569    -391.321
  N     -153.933     835.608    -395.636
  C     -154.451     836.461    -394.689
  N     -154.265     837.781    -394.904
  N     -155.073     836.061    -393.618
  C     -155.184     834.722    -393.524
  C     -154.682     833.765    -394.388
  C     -153.978     834.223    -395.568
  O     -153.472     833.503    -396.431
  N     -154.938     832.494    -393.931
  C     -155.681     832.678    -392.876
  N     -155.826     834.001    -392.536
  O     -160.685     830.284    -389.842
  O     -160.744     830.037    -392.392
  H     -156.549     837.113    -390.745
  H     -161.528     829.825    -389.988
  H     -153.447     835.977    -396.447
  H     -156.151     831.888    -392.279
  H     -155.528     835.028    -390.778
  H     -157.562     836.008    -392.525
  H     -153.789     838.170    -395.699
  H     -159.037     834.152    -392.117
  H     -154.647     838.434    -394.214
  H     -158.251     834.329    -389.181
  H     -158.601     831.848    -389.278
  H     -160.074     832.774    -389.531
  P     -160.956     835.981    -391.817
  C     -163.220     835.117    -390.880
  O     -162.325     836.203    -391.028
  O     -161.225     834.659    -392.690
  O     -160.522     837.111    -392.684
  H     -161.255     834.880    -393.648
  H     -163.792     835.224    -389.949
  H     -162.690     834.143    -390.857
  H     -163.929     835.107    -391.725
  H     -158.075     827.473    -390.573
  H     -159.573     827.617    -391.461
  H     -159.521     828.026    -389.763

 3  4  5  6  7  8  9  10  11  12  23  26  30  31 0
 6-311+G(2d,p)
 ****
 33  35  36  37  38 0
 6-311+G(2d,p)
 ****
 1  2  13  14  15  16  17  18  19  20  21  22  24  25 0
 3-21G
 ****
 27  28  29  32  34  39  40  41  42  43  44  45  46  47  48  49 0
 3-21G
 ****


