%nproc=1
%NoSave
%Mem=1900MB
#P OB98/GEN NMR

erre ene a

0 1
  C       45.927     386.140     649.869
  O       44.964     385.644     650.777
  P       44.394     386.562     651.964
  C       42.645     384.669     651.969
  O       43.355     385.617     652.758
  C       41.502     384.069     652.782
  O       40.676     385.145     653.277
  C       40.549     383.139     652.019
  O       40.996     381.796     651.905
  C       39.326     383.195     652.931
  O       39.526     382.330     654.059
  C       39.307     384.652     653.367
  N       34.464     385.797     652.202
  C       34.991     384.945     653.101
  N       36.292     384.688     653.349
  C       37.082     385.447     652.549
  C       36.680     386.365     651.593
  C       35.296     386.531     651.426
  N       34.750     387.409     650.511
  N       37.786     386.934     650.979
  C       38.821     386.389     651.569
  N       38.450     385.477     652.533
  O       43.865     387.883     651.530
  O       45.615     386.685     652.992
  H       38.741     382.425     654.631
  H       45.459     387.436     653.598
  H       34.287     384.395     653.721
  H       39.856     386.595     651.326
  H       38.992     384.773     654.407
  H       38.411     382.856     652.412
  H       40.297     383.566     651.036
  H       41.940     383.549     653.643
  H       43.348     383.876     651.680
  H       33.747     387.558     650.553
  H       35.380     388.069     650.064
  H       42.279     385.151     651.059
  P       40.369     380.914     650.707
  C       42.394     379.310     651.128
  O       41.015     379.457     650.858
  O       40.482     381.530     649.356
  O       38.859     380.698     651.197
  H       38.741     380.149     651.990
  H       42.610     378.248     651.357
  H       42.699     379.912     651.981
  H       42.983     379.596     650.230
  H       46.174     385.378     649.159
  H       46.808     386.427     650.405
  H       45.529     386.990     649.355

 3  4  5  6  7  8  9  10  11  12  22  25  29  30  31  32 0
 6-311+G(2d,p)
 ****
 33  36  37 0
 6-311+G(2d,p)
 ****
 1  2  13  14  15  16  17  18  19  20  21  23  24  26 0
 3-21G
 ****
 27  28  34  35  38  39  40  41  42  43  44  45  46  47  48 0
 3-21G
 ****


