%nproc=1
%NoSave
%Mem=1900MB
#P OB98/GEN NMR

erre ene a

0 1
  C      -90.347     147.295    -126.885
  O      -91.202     148.356    -126.512
  H      -90.777     146.355    -126.528
  H      -89.366     147.429    -126.422
  H      -90.243     147.245    -127.972
  P      -90.858     149.804    -127.115
  C      -90.750     151.285    -124.985
  O      -90.026     150.583    -125.985
  C      -90.039     152.590    -124.635
  O      -88.681     152.325    -124.219
  C      -89.944     153.580    -125.791
  O      -91.138     154.340    -125.935
  C      -88.795     154.453    -125.317
  O      -89.262     155.366    -124.301
  C      -87.847     153.415    -124.701
  N      -82.981     153.532    -126.126
  C      -83.632     154.233    -125.126
  N      -82.879     155.096    -124.409
  N      -84.904     154.103    -124.854
  C      -85.534     153.215    -125.660
  C      -85.000     152.461    -126.682
  C      -83.589     152.606    -126.964
  O      -82.959     151.993    -127.822
  N      -85.946     151.661    -127.265
  C      -87.057     151.948    -126.613
  N      -86.863     152.889    -125.633
  O      -92.276     150.554    -127.109
  O      -90.251     149.802    -128.477
  H      -88.484     155.865    -123.992
  H      -92.328     151.132    -127.895
  H      -82.003     153.679    -126.299
  H      -88.023     151.500    -126.809
  H      -87.295     153.812    -123.842
  H      -88.366     155.058    -126.116
  H      -81.907     155.279    -124.598
  H      -89.664     153.083    -126.726
  H      -83.325     155.596    -123.650
  H      -90.563     153.041    -123.780
  H      -90.824     150.662    -124.089
  H      -91.759     151.494    -125.357
  P      -91.673     154.608    -127.427
  C      -90.230     156.700    -127.967
  O      -90.457     155.314    -128.200
  O      -92.723     155.801    -127.224
  O      -92.286     153.428    -128.099
  H      -93.366     155.808    -127.959
  H      -89.393     157.027    -128.547
  H      -90.028     156.859    -126.928
  H      -91.099     157.256    -128.250

 6  7  8  9  10  11  12  13  14  15  26  29  33  34 0
 6-311+G(2d,p)
 ****
 36  38  39  40  41 0
 6-311+G(2d,p)
 ****
 1  2  3  4  5  16  17  18  19  20  21  22  23  24  25 0
 3-21G
 ****
 27  28  30  31  32  35  37  42  43  44  45  46  47 0
 3-21G
 ****
 48  49 0
 3-21G
 ****


