%nproc=1
%NoSave
%Mem=1900MB
#P OB98/GEN NMR

erre ene a

0 1
  C     -205.615     385.688      -3.248
  O     -204.952     386.656      -4.056
  P     -204.176     387.856      -3.331
  C     -202.461     386.598      -1.752
  O     -202.713     387.376      -2.902
  C     -200.942     386.506      -1.528
  O     -200.326     385.729      -2.576
  C     -200.250     387.867      -1.516
  O     -200.276     388.462      -0.231
  C     -198.859     387.514      -1.996
  O     -198.092     386.927      -0.925
  C     -199.172     386.455      -3.078
  N     -199.473     386.931      -4.449
  C     -198.458     387.485      -5.228
  O     -197.295     387.625      -4.857
  N     -198.820     387.883      -6.493
  C     -200.014     387.633      -7.103
  O     -200.262     387.959      -8.256
  C     -200.997     386.912      -6.290
  C     -200.696     386.610      -5.024
  O     -204.945     388.024      -1.942
  O     -204.146     389.133      -4.113
  H     -198.003     387.604      -0.232
  H     -205.380     388.895      -1.897
  H     -198.121     388.353      -7.043
  H     -201.941     386.651      -6.752
  H     -201.418     386.075      -4.413
  H     -198.343     385.739      -3.168
  H     -198.310     388.402      -2.307
  H     -200.708     388.529      -2.260
  H     -200.764     385.993      -0.571
  H     -202.883     385.597      -1.860
  H     -202.946     387.056      -0.884
  P     -201.041     389.851      -0.007
  C     -203.042     390.582      -1.440
  O     -202.538     389.606      -0.547
  O     -200.357     391.070      -0.528
  O     -201.256     389.908       1.582
  H     -200.546     390.443       2.008
  H     -203.991     390.221      -1.853
  H     -202.339     390.746      -2.261
  H     -203.226     391.518      -0.906
  H     -206.082     384.958      -3.876
  H     -206.359     386.172      -2.650
  H     -204.903     385.207      -2.611

 3  4  5  6  7  8  9  10  11  12  13  23  28  29  30  31  32 0
 6-311+G(2d,p)
 ****
 33  34 0
 6-311+G(2d,p)
 ****
 1  2  14  15  16  17  18  19  20  21  22  24  25  26  27 0
 3-21G
 ****
 35  36  37  38  39  40  41  42  43  44  45 0
 3-21G
 ****


