%nproc=1
%NoSave
%Mem=1900MB
#P OB98/GEN NMR

erre ene a

0 1
  C      209.326     -80.396     -11.420
  O      208.047     -79.906     -11.067
  H      209.818     -80.776     -10.522
  H      209.930     -79.594     -11.843
  H      209.236     -81.211     -12.146
  P      207.142     -79.340     -12.270
  C      206.326     -76.959     -12.970
  O      207.113     -77.746     -12.080
  C      206.701     -75.480     -12.848
  O      206.354     -75.024     -11.506
  C      208.208     -75.205     -13.031
  O      208.367     -73.885     -13.583
  C      208.706     -75.212     -11.595
  O      209.979     -74.609     -11.514
  C      207.558     -74.472     -10.925
  N      210.160     -73.555      -6.629
  C      210.381     -73.196      -7.916
  N      209.634     -73.475      -9.006
  C      208.543     -74.176      -8.657
  C      208.178     -74.606      -7.392
  C      209.055     -74.273      -6.340
  N      208.836     -74.651      -5.037
  N      206.992     -75.321      -7.446
  C      206.646     -75.310      -8.712
  N      207.544     -74.625      -9.487
  O      205.661     -79.798     -11.861
  O      207.515     -79.803     -13.634
  H      210.330     -74.644     -10.606
  H      205.454     -80.655     -12.277
  H      211.287     -72.615      -8.091
  H      205.763     -75.785      -9.137
  H      207.562     -73.390     -11.140
  H      208.799     -76.232     -11.215
  H      208.703     -75.939     -13.675
  H      206.096     -74.892     -13.552
  H      205.269     -77.104     -12.718
  H      206.502     -77.299     -13.999
  H      209.528     -74.396      -4.345
  H      208.037     -75.228      -4.803
  P      209.535     -73.624     -14.662
  C      211.731     -72.215     -14.871
  O      210.601     -72.565     -14.084
  O      208.776     -72.761     -15.779
  O      210.133     -74.853     -15.275
  H      208.996     -73.105     -16.665
  H      212.330     -71.506     -14.339
  H      211.403     -71.784     -15.794
  H      212.311     -73.092     -15.072

 6  7  8  9  10  11  12  13  14  15  25  28  32  33  34  35 0
 6-311+G(2d,p)
 ****
 36  37  40 0
 6-311+G(2d,p)
 ****
 1  2  3  4  5  16  17  18  19  20  21  22  23  24 0
 3-21G
 ****
 26  27  29  30  31  38  39 41  42  43  44  45  46  47  48 0
 3-21G
 ****


