%nproc=1
%NoSave
%Mem=1900MB
#P OB98/GEN NMR

erre ene a

0 1
  C      -10.447     506.762    -553.953
  O      -10.525     508.086    -554.440
  P       -9.206     508.908    -554.835
  C       -9.426     508.657    -557.393
  O       -8.686     508.304    -556.234
  C       -8.668     509.731    -558.203
  O       -7.286     509.283    -558.393
  C       -9.284     509.974    -559.605
  O       -9.576     511.347    -559.890
  C       -8.282     509.312    -560.539
  O       -8.346     509.771    -561.871
  C       -6.963     509.537    -559.778
  N       -5.884     508.676    -560.258
  C       -5.386     508.924    -561.532
  O       -5.784     509.839    -562.269
  N       -4.429     508.065    -561.999
  C       -4.018     506.924    -561.373
  O       -3.234     506.128    -561.885
  C       -4.611     506.674    -560.042
  C       -5.482     507.557    -559.546
  O       -8.165     508.996    -553.763
  O       -9.792     510.336    -555.295
  H       -7.867     509.142    -562.433
  H      -10.418     510.300    -556.046
  H       -4.064     508.236    -562.921
  H       -4.312     505.776    -559.537
  H       -5.938     507.399    -558.559
  H       -6.634     510.572    -559.856
  H       -8.504     508.237    -560.550
  H      -10.250     509.469    -559.697
  H       -8.662     510.648    -557.605
  H      -10.396     509.061    -557.086
  H       -9.619     507.769    -558.009
  P      -10.742     511.856    -560.869
  C      -12.101     512.811    -558.858
  O      -12.095     511.978    -560.018
  O      -10.867     511.098    -562.157
  O      -10.346     513.383    -561.154
  H      -10.674     513.647    -562.041
  H      -12.853     512.414    -558.157
  H      -12.401     513.824    -559.146
  H      -11.126     512.835    -558.371
  H      -11.433     506.398    -553.751
  H       -9.869     506.747    -553.052
  H       -9.980     506.139    -554.687

 3  4  5  6  7  8  9  10  11  12  13  23  28  29  30  31  32 0
 6-311+G(2d,p)
 ****
 33  34 0
 6-311+G(2d,p)
 ****
 1  2  14  15  16  17  18  19  20  21  22  24  25  26  27 0
 3-21G
 ****
 35  36  37  38  39  40  41  42  43  44  45 0
 3-21G
 ****


