%nproc=1
%NoSave
%Mem=1900MB
#P OB98/GEN NMR

erre ene a

0 1
  C      -75.271      60.978     -56.089
  O      -74.849      62.186     -55.484
  H      -75.543      60.268     -55.304
  H      -74.455      60.555     -56.681
  H      -76.142      61.153     -56.726
  P      -74.628      63.434     -56.464
  C      -72.655      64.169     -58.029
  O      -73.334      63.111     -57.365
  C      -71.350      63.657     -58.630
  O      -71.595      62.549     -59.519
  C      -70.627      64.667     -59.506
  O      -70.022      65.699     -58.759
  C      -69.626      63.763     -60.213
  O      -68.451      63.552     -59.422
  C      -70.427      62.446     -60.368
  N      -70.770      62.184     -61.753
  C      -69.689      61.872     -62.590
  O      -68.548      61.815     -62.130
  N      -69.929      61.672     -63.924
  C      -71.132      61.799     -64.390
  N      -71.295      61.619     -65.728
  C      -72.297      62.128     -63.544
  C      -72.047      62.308     -62.247
  O      -74.105      64.568     -55.466
  O      -75.828      63.825     -57.258
  H      -68.749      63.526     -58.489
  H      -73.385      64.275     -54.883
  H      -73.283      62.210     -63.979
  H      -72.844      62.552     -61.554
  H      -69.842      61.596     -59.993
  H      -69.298      64.191     -61.163
  H      -71.314      65.072     -60.261
  H      -70.708      63.310     -57.809
  H      -70.462      61.450     -66.280
  H      -72.457      64.993     -57.336
  H      -72.168      61.770     -66.212
  H      -73.316      64.546     -58.815
  P      -69.521      67.049     -59.458
  C      -67.513      67.628     -60.967
  O      -68.437      66.622     -60.568
  O      -69.056      68.117     -58.527
  O      -70.772      67.473     -60.365
  H      -71.034      66.817     -61.034
  H      -66.847      67.229     -61.703
  H      -66.951      67.953     -60.117
  H      -68.046      68.458     -61.381

 6  7  8  9  10  11  12  13  14  15  16  26  30  31  32  33  35 0
 6-311+G(2d,p)
 ****
 37  38 0
 6-311+G(2d,p)
 ****
 1  2  3  4  5  17  18  19  20  21  22  23  24  25 0
 3-21G
 ****
 27  28  29  34  36  39  40  41  42  43  44  45  46 0
 3-21G
 ****


