%nproc=1
%NoSave
%Mem=1900MB
#P OB98/GEN NMR

erre ene a

0 1
  C     -669.718     114.526     316.932
  O     -669.222     115.433     317.926
  P     -667.745     116.021     317.718
  C     -667.540     116.557     320.274
  O     -667.511     117.037     318.936
  C     -667.206     117.693     321.244
  O     -665.916     118.269     320.927
  C     -668.184     118.852     321.207
  O     -669.405     118.524     321.857
  C     -667.369     119.942     321.890
  O     -667.422     119.784     323.318
  C     -665.942     119.647     321.377
  N     -665.508     120.560     320.334
  C     -665.245     121.864     320.739
  O     -665.379     122.248     321.902
  N     -664.825     122.722     319.761
  C     -664.681     122.425     318.433
  O     -664.301     123.232     317.601
  C     -665.033     121.043     318.055
  C     -665.419     120.187     319.005
  O     -667.967     116.964     316.452
  O     -666.714     114.959     317.546
  H     -668.840     117.395     316.441
  H     -668.374     119.791     323.563
  H     -664.613     123.672     320.041
  H     -664.955     120.773     317.012
  H     -665.683     119.167     318.741
  H     -665.225     119.707     322.206
  H     -667.736     120.949     321.659
  H     -668.385     119.138     320.166
  H     -667.150     117.271     322.259
  H     -666.808     115.750     320.397
  H     -668.530     116.138     320.481
  P     -670.709     119.342     321.403
  C     -672.211     119.331     323.546
  O     -671.925     118.773     322.275
  O     -670.969     118.728     319.944
  O     -670.533     120.821     321.423
  H     -670.877     117.761     319.913
  H     -673.240     119.077     323.815
  H     -672.115     120.423     323.528
  H     -671.536     118.916     324.291
  H     -670.707     114.215     317.195
  H     -669.077     113.671     316.878
  H     -669.739     115.016     315.981

 3  4  5  6  7  8  9  10  11  12  13  24  28  29  30  31  32 0
 6-311+G(2d,p)
 ****
 33  34 0
 6-311+G(2d,p)
 ****
 1  2  14  15  16  17  18  19  20  21  22  23  25  26  27 0
 3-21G
 ****
 35  36  37  38  39  40  41  42  43  44  45 0
 3-21G
 ****


