%nproc=1
%NoSave
%Mem=1900MB
#P OB98/GEN NMR

erre ene a

0 1
  C      -60.607    -118.330     -47.454
  O      -60.341    -118.695     -48.820
  P      -58.864    -118.850     -49.422
  C      -57.843    -119.359     -51.747
  O      -58.978    -118.894     -51.023
  C      -58.120    -119.349     -53.261
  O      -59.071    -120.394     -53.597
  C      -58.760    -118.071     -53.799
  O      -57.839    -116.999     -53.863
  C      -59.263    -118.554     -55.156
  O      -58.235    -118.503     -56.153
  C      -59.648    -120.020     -54.876
  N      -61.085    -120.243     -54.886
  C      -61.732    -120.087     -56.119
  O      -61.108    -119.695     -57.101
  N      -63.080    -120.371     -56.189
  C      -63.737    -120.668     -55.109
  N      -65.059    -120.952     -55.246
  C      -63.114    -120.717     -53.769
  C      -61.797    -120.502     -53.735
  O      -58.085    -119.993     -48.848
  O      -58.135    -117.454     -49.130
  H      -57.174    -117.593     -49.072
  H      -57.800    -117.627     -56.071
  H      -63.703    -120.936     -52.895
  H      -61.261    -120.532     -52.796
  H      -59.171    -120.681     -55.610
  H      -60.099    -117.940     -55.523
  H      -59.610    -117.801     -53.165
  H      -57.176    -119.557     -53.781
  H      -65.452    -120.924     -56.182
  H      -57.626    -120.385     -51.433
  H      -65.654    -121.221     -54.476
  H      -56.978    -118.726     -51.507
  P      -58.233    -115.658     -53.080
  C      -57.058    -113.406     -52.531
  O      -57.050    -114.600     -53.294
  O      -58.107    -116.068     -51.535
  O      -59.599    -115.137     -53.390
  H      -58.827    -115.657     -51.021
  H      -56.029    -113.056     -52.418
  H      -57.500    -113.558     -51.541
  H      -57.632    -112.643     -53.071
  H      -61.664    -118.292     -47.294
  H      -60.181    -117.370     -47.252
  H      -60.174    -119.057     -46.800

 3  4  5  6  7  8  9  10  11  12  13  24  27  28  29  30  32 0
 6-311+G(2d,p)
 ****
 34  35 0
 6-311+G(2d,p)
 ****
 1  2  14  15  16  17  18  19  20  21  22  23  25  26 0
 3-21G
 ****
 31  33  36  37  38  39  40  41  42  43  44  45  46 0
 3-21G
 ****


