%nproc=1
%NoSave
%Mem=1900MB
#P OB98/GEN NMR

erre ene a

0 1
  C      288.478     102.774    -165.198
  O      287.666     101.687    -165.589
  H      287.858     103.505    -164.670
  H      288.913     103.254    -166.077
  H      289.271     102.433    -164.527
  P      288.385     100.497    -166.388
  C      288.438     101.539    -168.763
  O      289.181     101.189    -167.603
  C      289.379     101.799    -169.941
  O      288.601     101.815    -171.170
  C      290.130     103.135    -169.851
  O      291.457     102.952    -170.356
  C      289.358     104.028    -170.805
  O      290.143     105.116    -171.281
  C      288.959     103.018    -171.876
  N      287.638     104.175    -176.593
  C      288.821     103.665    -176.093
  N      289.808     103.429    -176.983
  N      289.018     103.412    -174.826
  C      287.938     103.669    -174.051
  C      286.719     104.184    -174.421
  C      286.519     104.483    -175.826
  O      285.502     104.955    -176.325
  N      285.895     104.336    -173.332
  C      286.615     103.913    -172.309
  N      287.860     103.496    -172.696
  O      287.172      99.752    -167.120
  O      289.199      99.563    -165.557
  H      289.567     105.682    -171.837
  H      287.365      98.801    -167.236
  H      287.542     104.363    -177.576
  H      286.288     103.890    -171.278
  H      289.787     102.784    -172.559
  H      288.471     104.438    -170.303
  H      289.717     103.569    -177.978
  H      290.175     103.544    -168.839
  H      290.681     103.043    -176.640
  H      290.080     100.958    -170.021
  H      287.855     102.443    -168.555
  H      287.754     100.720    -169.012
  P      292.510     102.186    -169.418
  C      293.718     104.289    -168.495
  O      292.918     103.151    -168.205
  O      293.832     102.144    -170.324
  O      292.080     100.810    -169.029
  H      293.986     101.236    -170.642
  H      293.907     104.832    -167.592
  H      293.203     104.920    -169.189
  H      294.647     103.973    -168.922

 6  7  8  9  10  11  12  13  14  15  26  29  33  34 0
 6-311+G(2d,p)
 ****
 36  38  39  40  41 0
 6-311+G(2d,p)
 ****
 1  2  3  4  5  16  17  18  19  20  21  22  23  24  25 0
 3-21G
 ****
 27  28  30  31  32  35  37  42  43  44  45  46  47 0
 3-21G
 ****
 48  49 0
 3-21G
 ****


