%nproc=1
%NoSave
%Mem=1900MB
#P OB98/GEN NMR

erre ene a

0 1
  C     -125.791    -149.773     130.115
  O     -126.171    -151.114     130.347
  H     -125.503    -149.291     131.055
  H     -124.935    -149.763     129.436
  H     -126.615    -149.224     129.652
  P     -127.351    -151.346     131.409
  C     -125.465    -152.171     132.984
  O     -126.655    -151.408     132.855
  C     -124.542    -151.535     134.018
  O     -124.421    -150.119     133.771
  C     -125.022    -151.653     135.460
  O     -124.753    -152.940     136.004
  C     -124.176    -150.576     136.125
  O     -122.855    -151.086     136.383
  C     -124.116    -149.486     135.043
  N     -125.183    -145.321     137.850
  C     -124.155    -146.202     137.895
  N     -123.943    -147.289     137.128
  C     -124.921    -147.431     136.219
  C     -126.032    -146.615     136.052
  C     -126.150    -145.520     136.926
  N     -127.210    -144.641     136.882
  N     -126.814    -147.063     135.011
  C     -126.191    -148.130     134.551
  N     -125.045    -148.395     135.256
  O     -127.795    -152.865     131.148
  O     -128.508    -150.412     131.293
  H     -122.965    -151.871     136.956
  H     -128.760    -152.939     131.278
  H     -123.398    -146.000     138.650
  H     -126.526    -148.732     133.717
  H     -123.108    -149.064     134.955
  H     -124.588    -150.235     137.077
  H     -126.079    -151.391     135.549
  H     -123.545    -151.983     133.900
  H     -124.952    -152.210     132.018
  H     -127.139    -143.776     137.390
  H     -127.925    -144.794     136.177
  H     -125.729    -153.191     133.286
  P     -126.015    -153.878     136.339
  C     -125.536    -153.449     138.853
  O     -126.501    -153.438     137.803
  O     -125.343    -155.309     136.586
  O     -127.066    -153.930     135.281
  H     -125.995    -156.017     136.406
  H     -125.998    -153.135     139.766
  H     -124.737    -152.781     138.610
  H     -125.149    -154.440     138.971

 6  7  8  9  10  11  12  13  14  15  25  28  32  33  34  35 0
 6-311+G(2d,p)
 ****
 36  39  40 0
 6-311+G(2d,p)
 ****
 1  2  3  4  5  16  17  18  19  20  21  22  23  24 0
 3-21G
 ****
 26  27  29  30  31  37  38  41  42  43  44  45  46  47  48 0
 3-21G
 ****


