%nproc=1
%NoSave
%Mem=1900MB
#P OB98/GEN NMR

erre ene a

0 1
  C     -139.356     692.087     229.775
  O     -138.742     693.356     229.908
  P     -138.312     693.908     231.348
  C     -140.055     695.800     231.368
  O     -139.624     694.586     231.977
  C     -140.489     696.802     232.432
  O     -141.391     696.194     233.389
  C     -139.340     697.339     233.281
  O     -138.374     698.143     232.632
  C     -140.104     697.959     234.441
  O     -140.590     699.259     234.108
  C     -141.275     696.970     234.613
  N     -141.104     696.103     235.789
  C     -141.278     696.713     237.027
  O     -141.567     697.906     237.159
  N     -141.083     695.917     238.114
  C     -140.693     694.612     238.089
  O     -140.483     693.965     239.107
  C     -140.492     694.022     236.757
  C     -140.708     694.786     235.678
  O     -137.096     694.765     231.366
  O     -138.176     692.564     232.236
  H     -141.159     699.560     234.848
  H     -138.992     692.042     232.292
  H     -141.194     696.335     239.027
  H     -140.198     692.982     236.704
  H     -140.574     694.374     234.684
  H     -142.222     697.505     234.727
  H     -139.466     698.076     235.328
  H     -138.789     696.479     233.691
  H     -141.042     697.615     231.938
  H     -140.909     695.588     230.715
  H     -139.254     696.208     230.745
  P     -136.870     698.307     233.176
  C     -137.408     700.695     234.027
  O     -136.870     699.420     234.327
  O     -135.803     698.377     232.142
  O     -136.687     696.956     234.031
  H     -135.749     696.682     233.995
  H     -137.281     701.335     234.901
  H     -138.469     700.617     233.800
  H     -136.876     701.148     233.186
  H     -139.566     691.899     228.743
  H     -140.269     692.072     230.333
  H     -138.697     691.331     230.148

 3  4  5  6  7  8  9  10  11  12  13  23  28  29  30  31  32 0
 6-311+G(2d,p)
 ****
 33  34 0
 6-311+G(2d,p)
 ****
 1  2  14  15  16  17  18  19  20  21  22  24  25  26  27 0
 3-21G
 ****
 35  36  37  38  39  40  41  42  43  44  45 0
 3-21G
 ****


