%nproc=1
%NoSave
%Mem=1900MB
#P OB98/GEN NMR

erre ene a

0 1
  C     -325.346    -195.445     -89.147
  O     -324.496    -195.738     -88.050
  P     -325.170    -196.192     -86.670
  C     -325.599    -198.538     -87.705
  O     -326.136    -197.442     -86.977
  C     -325.428    -199.757     -86.798
  O     -324.705    -200.796     -87.512
  C     -324.652    -199.460     -85.510
  O     -325.165    -200.284     -84.449
  C     -323.251    -199.947     -85.821
  O     -322.526    -200.259     -84.633
  C     -323.559    -201.157     -86.708
  N     -318.876    -203.052     -86.760
  C     -319.820    -203.075     -85.752
  N     -319.427    -203.598     -84.570
  N     -321.041    -202.630     -85.892
  C     -321.290    -202.127     -87.127
  C     -320.439    -202.067     -88.212
  C     -319.091    -202.552     -88.036
  O     -318.201    -202.536     -88.878
  N     -321.060    -201.525     -89.305
  C     -322.272    -201.215     -88.879
  N     -322.446    -201.529     -87.557
  O     -326.191    -194.998     -86.362
  O     -324.213    -196.384     -85.541
  H     -321.642    -200.566     -84.913
  H     -325.836    -194.438     -85.644
  H     -317.945    -203.399     -86.597
  H     -323.044    -200.748     -89.471
  H     -323.838    -202.032     -86.113
  H     -322.701    -199.175     -86.370
  H     -318.480    -203.893     -84.377
  H     -324.671    -198.412     -85.198
  H     -320.085    -203.585     -83.802
  H     -326.419    -200.165     -86.568
  H     -324.627    -198.256     -88.107
  H     -326.261    -198.780     -88.543
  P     -324.827    -199.791     -82.955
  C     -327.098    -198.519     -82.964
  O     -325.704    -198.474     -82.723
  O     -323.329    -199.236     -83.081
  O     -324.956    -200.855     -81.916
  H     -322.880    -199.284     -82.214
  H     -327.627    -198.333     -82.029
  H     -327.416    -199.483     -83.371
  H     -327.359    -197.732     -83.682
  H     -324.754    -195.159     -89.991
  H     -326.004    -194.643     -88.884
  H     -325.922    -196.312     -89.394

 3  4  5  6  7  8  9  10  11  12  23  26  30  31 0
 6-311+G(2d,p)
 ****
 33  35  36  37  38 0
 6-311+G(2d,p)
 ****
 1  2  13  14  15  16  17  18  19  20  21  22  24  25 0
 3-21G
 ****
 27  28  29  32  34  39  40  41  42  43  44  45  46  47  48  49 0
 3-21G
 ****


