%nproc=1
%NoSave
%Mem=1900MB
#P OB98/GEN NMR

erre ene a

0 1
  C      677.024    -135.858     484.722
  O      678.203    -135.390     484.095
  P      678.116    -134.291     482.922
  C      677.705    -135.516     480.697
  O      677.106    -134.843     481.799
  C      676.886    -135.288     479.426
  O      675.681    -136.080     479.451
  C      676.406    -133.846     479.236
  O      677.464    -132.979     478.857
  C      675.313    -134.046     478.179
  O      675.886    -134.148     476.876
  C      674.709    -135.400     478.621
  N      673.441    -135.231     479.308
  C      672.298    -135.194     478.494
  O      672.404    -135.207     477.268
  N      671.066    -135.126     479.096
  C      670.983    -134.981     480.392
  N      669.733    -134.970     480.939
  C      672.167    -134.854     481.260
  C      673.357    -135.002     480.666
  O      679.433    -133.813     482.409
  O      677.291    -133.096     483.581
  H      677.768    -132.256     483.429
  H      675.992    -133.242     476.537
  H      672.046    -134.668     482.321
  H      674.279    -134.960     481.232
  H      674.565    -136.033     477.742
  H      674.616    -133.204     478.176
  H      675.957    -133.486     480.161
  H      677.495    -135.600     478.566
  H      668.952    -135.088     480.313
  H      677.766    -136.582     480.917
  H      669.565    -135.192     481.910
  H      678.733    -135.139     480.555
  P      677.453    -131.501     479.475
  C      677.089    -130.517     477.105
  O      676.644    -130.566     478.459
  O      678.974    -131.026     479.322
  O      676.995    -131.443     480.909
  H      679.219    -130.485     480.097
  H      676.270    -130.147     476.480
  H      677.366    -131.509     476.743
  H      677.942    -129.838     477.029
  H      677.280    -136.579     485.470
  H      676.388    -136.313     483.992
  H      676.512    -135.036     485.178

 3  4  5  6  7  8  9  10  11  12  13  24  27  28  29  30  32 0
 6-311+G(2d,p)
 ****
 34  35 0
 6-311+G(2d,p)
 ****
 1  2  14  15  16  17  18  19  20  21  22  23  25  26 0
 3-21G
 ****
 31  33  36  37  38  39  40  41  42  43  44  45  46 0
 3-21G
 ****


