%nproc=1
%NoSave
%Mem=1900MB
#P OB98/GEN NMR

erre ene a

0 1
  C      -17.120     -93.298     -21.286
  O      -18.257     -92.508     -21.583
  P      -18.161     -90.924     -21.362
  C      -19.486     -91.033     -19.131
  O      -19.396     -90.479     -20.438
  C      -20.615     -90.372     -18.334
  O      -20.729     -91.004     -17.036
  C      -20.399     -88.873     -18.093
  O      -21.671     -88.202     -18.090
  C      -19.856     -88.819     -16.682
  O      -20.090     -87.543     -16.080
  C      -20.626     -89.969     -16.035
  N      -20.835     -90.153     -10.986
  C      -21.809     -89.784     -11.893
  N      -22.971     -89.325     -11.371
  N      -21.664     -89.874     -13.185
  C      -20.452     -90.343     -13.561
  C      -19.407     -90.756     -12.754
  C      -19.579     -90.640     -11.325
  O      -18.743     -90.925     -10.473
  N      -18.350     -91.207     -13.504
  C      -18.728     -91.028     -14.756
  N      -19.979     -90.477     -14.840
  O      -18.541     -90.337     -22.804
  O      -16.822     -90.438     -20.922
  H      -21.033     -87.326     -16.239
  H      -17.738     -90.009     -23.251
  H      -20.987     -90.060      -9.992
  H      -18.128     -91.263     -15.628
  H      -21.646     -89.671     -15.763
  H      -18.775     -89.005     -16.683
  H      -23.118     -89.175     -10.381
  H      -19.731     -88.389     -18.817
  H      -23.682     -89.008     -12.011
  H      -21.561     -90.549     -18.863
  H      -18.539     -90.870     -18.609
  H      -19.656     -92.114     -19.204
  P      -21.831     -86.999     -19.149
  C      -21.392     -85.132     -17.383
  O      -22.300     -85.729     -18.288
  O      -23.145     -87.410     -19.969
  O      -20.645     -86.797     -20.026
  H      -23.125     -87.002     -20.859
  H      -21.189     -84.106     -17.707
  H      -20.443     -85.680     -17.323
  H      -21.848     -85.103     -16.391
  H      -17.339     -94.327     -21.483
  H      -16.863     -93.180     -20.254
  H      -16.299     -92.985     -21.896

 3  4  5  6  7  8  9  10  11  12  23  26  30  31 0
 6-311+G(2d,p)
 ****
 33  35  36  37  38 0
 6-311+G(2d,p)
 ****
 1  2  13  14  15  16  17  18  19  20  21  22  24  25 0
 3-21G
 ****
 27  28  29  32  34  39  40  41  42  43  44  45  46  47  48  49 0
 3-21G
 ****


