%nproc=1
%NoSave
%Mem=1900MB
#P OB98/GEN NMR

erre ene a

0 1
  C       37.327     -98.558      -6.174
  O       36.741     -99.793      -6.552
  P       37.707    -100.917      -7.168
  C       37.214    -100.145      -9.598
  O       38.196    -100.384      -8.601
  C       37.869     -99.811     -10.940
  O       38.493     -98.499     -10.846
  C       38.955    -100.806     -11.385
  O       38.882    -100.886     -12.813
  C       40.228    -100.105     -10.938
  O       41.405    -100.601     -11.551
  C       39.869     -98.656     -11.261
  N       44.608     -96.761     -10.961
  C       44.053     -97.669     -11.796
  N       42.780     -98.119     -11.820
  C       42.048     -97.522     -10.863
  C       42.480     -96.595      -9.929
  C       43.828     -96.211     -10.002
  N       44.395     -95.290      -9.141
  N       41.449     -96.230      -9.087
  C       40.412     -96.926      -9.504
  N       40.720     -97.704     -10.586
  O       36.696    -102.098      -7.542
  O       38.798    -101.383      -6.253
  H       41.597    -101.502     -11.225
  H       37.085    -102.972      -7.353
  H       44.718     -98.089     -12.543
  H       39.428     -96.915      -9.053
  H       39.919     -98.452     -12.337
  H       40.348    -100.242      -9.856
  H       38.826    -101.806     -10.962
  H       37.082     -99.745     -11.702
  H       36.592     -99.295      -9.300
  H       45.404     -95.234      -9.147
  H       43.866     -95.048      -8.313
  H       36.564    -101.023      -9.685
  P       39.295    -102.259     -13.534
  C       41.258    -100.846     -14.405
  O       40.863    -102.080     -13.836
  O       38.661    -102.040     -14.989
  O       38.865    -103.510     -12.849
  H       38.920    -101.181     -15.367
  H       42.349    -100.822     -14.465
  H       40.918    -100.014     -13.781
  H       40.846    -100.753     -15.414
  H       36.571     -97.910      -5.783
  H       37.780     -98.102      -7.029
  H       38.071     -98.731      -5.425

 3  4  5  6  7  8  9  10  11  12  22  25  29  30  31  32 0
 6-311+G(2d,p)
 ****
 33  36  37 0
 6-311+G(2d,p)
 ****
 1  2  13  14  15  16  17  18  19  20  21  23  24  26 0
 3-21G
 ****
 27  28  34  35  38  39  40  41  42  43  44  45  46  47  48 0
 3-21G
 ****


