%nproc=1
%NoSave
%Mem=1900MB
#P OB98/GEN NMR

erre ene a

0 1
  C     -176.046     134.664    -604.118
  O     -175.519     135.805    -604.764
  H     -175.355     133.821    -604.218
  H     -176.181     134.888    -603.056
  H     -177.018     134.400    -604.547
  P     -175.236     135.662    -606.338
  C     -173.037     134.305    -606.172
  O     -174.412     134.298    -606.537
  C     -172.222     133.499    -607.174
  O     -170.824     133.565    -606.780
  C     -172.625     132.012    -607.258
  O     -172.827     131.625    -608.624
  C     -171.413     131.270    -606.719
  O     -171.197     130.019    -607.365
  C     -170.275     132.253    -606.976
  N     -165.584     130.281    -606.654
  C     -166.305     130.700    -607.718
  N     -167.510     131.308    -607.729
  C     -167.954     131.503    -606.474
  C     -167.322     131.147    -605.293
  C     -166.088     130.492    -605.409
  N     -165.379     130.014    -604.337
  N     -168.095     131.504    -604.197
  C     -169.190     132.020    -604.711
  N     -169.159     132.022    -606.081
  O     -174.155     136.809    -606.620
  O     -176.442     135.822    -607.202
  H     -171.009     130.209    -608.303
  H     -174.527     137.442    -607.263
  H     -165.854     130.522    -608.691
  H     -170.051     132.358    -604.145
  H     -169.912     132.188    -608.009
  H     -171.554     131.088    -605.647
  H     -173.524     131.786    -606.678
  H     -172.302     133.972    -608.161
  H     -172.924     133.860    -605.173
  H     -164.562     129.452    -604.516
  H     -165.801     130.073    -603.419
  H     -172.685     135.341    -606.135
  P     -174.169     132.176    -609.324
  C     -175.111     129.947    -610.282
  O     -175.252     130.988    -609.321
  O     -173.747     132.311    -610.867
  O     -174.642     133.476    -608.775
  H     -173.895     133.226    -611.173
  H     -175.900     129.236    -610.156
  H     -174.168     129.461    -610.145
  H     -175.159     130.362    -611.267

 6  7  8  9  10  11  12  13  14  15  25  28  32  33  34  35 0
 6-311+G(2d,p)
 ****
 36  39  40 0
 6-311+G(2d,p)
 ****
 1  2  3  4  5  16  17  18  19  20  21  22  23  24 0
 3-21G
 ****
 26  27  29  30  31  37  38  41  42  43  44  45  46  47  48 0
 3-21G
 ****


