%nproc=1
%NoSave
%Mem=1900MB
#P OB98/GEN NMR

erre ene a

0 1
  C      -32.140    -445.411     481.573
  O      -33.171    -445.850     480.684
  P      -33.383    -447.439     480.550
  C      -32.807    -448.928     482.612
  O      -33.711    -448.004     482.016
  C      -33.335    -449.418     483.959
  O      -33.543    -448.312     484.865
  C      -34.688    -450.123     483.884
  O      -34.552    -451.468     483.451
  C      -35.131    -450.061     485.337
  O      -34.526    -451.130     486.081
  C      -34.574    -448.699     485.799
  N      -37.448    -445.762     488.777
  C      -36.527    -446.736     489.119
  N      -36.322    -446.935     490.440
  N      -35.863    -447.446     488.241
  C      -36.148    -447.118     486.956
  C      -37.042    -446.177     486.491
  C      -37.791    -445.412     487.474
  O      -38.639    -444.564     487.228
  N      -37.048    -446.122     485.119
  C      -36.139    -447.013     484.754
  N      -35.577    -447.650     485.830
  O      -31.899    -447.976     480.273
  O      -34.331    -447.835     479.472
  H      -34.774    -451.004     487.025
  H      -31.936    -448.812     479.773
  H      -37.932    -445.249     489.495
  H      -35.857    -447.224     483.732
  H      -34.118    -448.767     486.793
  H      -36.217    -450.171     485.455
  H      -36.748    -446.374     491.166
  H      -35.391    -449.555     483.258
  H      -35.621    -447.622     490.703
  H      -32.588    -450.091     484.396
  H      -31.834    -448.449     482.752
  H      -32.651    -449.767     481.922
  P      -35.253    -451.868     482.062
  C      -34.807    -450.733     479.768
  O      -34.259    -451.352     480.914
  O      -36.498    -450.860     481.980
  O      -35.678    -453.299     481.976
  H      -37.224    -451.265     481.467
  H      -35.606    -450.034     480.037
  H      -35.204    -451.501     479.090
  H      -34.019    -450.180     479.255
  H      -32.100    -444.342     481.573
  H      -31.199    -445.803     481.249
  H      -32.350    -445.760     482.562

 3  4  5  6  7  8  9  10  11  12  23  26  30  31  33  0
 6-311+G(2d,p)
 ****
 35  36  37  38 0
 6-311+G(2d,p)
 ****
 1  2  13  14  15  16  17  18  19  20  21  22  24  25  27  28  29 0
 3-21G
 ****
 32  34  39  40  41  42  43  44  45  46  47  48  49 0
 3-21G
 ****


