%nproc=1
%NoSave
%Mem=1900MB
#P OB98/GEN NMR

erre ene a

0 1
  C      -14.433     137.931     -92.881
  O      -13.064     138.071     -92.553
  H      -15.026     138.064     -91.971
  H      -14.632     136.935     -93.284
  H      -14.731     138.693     -93.607
  P      -11.984     137.912     -93.724
  C      -11.720     140.474     -93.922
  O      -12.066     139.264     -94.584
  C      -12.652     141.597     -94.365
  O      -14.010     141.304     -93.986
  C      -12.314     142.957     -93.755
  O      -11.248     143.569     -94.465
  C      -13.644     143.674     -93.932
  O      -13.795     144.087     -95.303
  C      -14.646     142.555     -93.598
  N      -18.230     143.580     -90.161
  C      -18.183     143.878     -91.512
  N      -19.221     144.586     -92.002
  N      -17.198     143.530     -92.298
  C      -16.199     142.886     -91.652
  C      -16.121     142.550     -90.320
  C      -17.242     142.893     -89.470
  O      -17.332     142.631     -88.271
  N      -14.920     141.962     -90.016
  C      -14.290     141.904     -91.171
  N      -15.015     142.468     -92.196
  O      -12.080     136.664     -94.552
  O      -10.576     138.033     -92.977
  H      -14.653     144.548     -95.363
  H      -10.236     137.156     -92.719
  H      -19.007     143.892     -89.603
  H      -13.309     141.468     -91.323
  H      -15.575     142.644     -94.175
  H      -13.736     144.567     -93.311
  H      -19.842     145.113     -91.399
  H      -12.101     142.881     -92.683
  H      -19.182     144.858     -92.975
  H      -12.625     141.643     -95.462
  H      -10.684     140.709     -94.182
  H      -11.790     140.345     -92.835
  P       -9.960     144.145     -93.695
  C       -8.044     142.977     -94.977
  O       -8.860     142.985     -93.813
  O      -10.222     144.614     -92.303
  O       -9.383     145.272     -94.664
  H       -9.779     146.166     -94.507
  H       -7.359     142.157     -94.927
  H       -7.497     143.895     -95.036
  H       -8.661     142.873     -95.845

 6  7  8  9  10  11  12  13  14  15  26  29  33  34 0
 6-311+G(2d,p)
 ****
 36  38  39  40  41 0
 6-311+G(2d,p)
 ****
 1  2  3  4  5  16  17  18  19  20  21  22  23  24  25 0
 3-21G
 ****
 27  28  30  31  32  35  37  42  43  44  45  46  47 0
 3-21G
 ****
 48  49 0
 3-21G
 ****


