%nproc=1
%NoSave
%Mem=1900MB
#P OB98/GEN NMR

erre ene a

0 1
  C     -202.555     113.370     336.699
  O     -202.530     113.949     337.990
  H     -203.276     113.913     336.084
  H     -202.864     112.322     336.764
  H     -201.567     113.440     336.234
  P     -201.543     113.270     339.058
  C     -203.513     112.325     340.456
  O     -202.352     112.036     339.691
  C     -203.741     111.241     341.508
  O     -204.050     109.979     340.880
  C     -202.549     110.995     342.425
  O     -202.510     111.937     343.482
  C     -202.836     109.579     342.907
  O     -203.800     109.573     343.980
  C     -203.416     108.921     341.648
  N     -202.147     104.490     339.587
  C     -203.262     104.847     340.318
  N     -204.145     103.859     340.582
  N     -203.488     106.055     340.758
  C     -202.502     106.928     340.444
  C     -201.358     106.702     339.714
  C     -201.137     105.366     339.208
  O     -200.201     105.002     338.499
  N     -200.610     107.845     339.594
  C     -201.282     108.750     340.281
  N     -202.427     108.238     340.830
  O     -201.503     114.334     340.257
  O     -200.175     112.956     338.558
  H     -203.890     108.666     344.323
  H     -200.633     114.288     340.695
  H     -202.038     103.547     339.261
  H     -200.979     109.781     340.409
  H     -204.190     108.184     341.888
  H     -201.938     109.094     343.293
  H     -203.874     102.885     340.567
  H     -201.611     111.001     341.852
  H     -204.954     104.107     341.135
  H     -204.621     111.537     342.095
  H     -204.379     112.365     339.789
  H     -203.391     113.300     340.941
  P     -201.120     112.697     343.753
  C     -199.919     110.609     344.735
  O     -199.975     111.578     343.695
  O     -201.198     113.065     345.308
  O     -200.894     113.901     342.899
  H     -200.543     113.758     345.520
  H     -199.106     109.938     344.553
  H     -200.837     110.059     344.760
  H     -199.772     111.101     345.674

 6  7  8  9  10  11  12  13  14  15  26  29  33  34 0
 6-311+G(2d,p)
 ****
 36  38  39  40  41 0
 6-311+G(2d,p)
 ****
 1  2  3  4  5  16  17  18  19  20  21  22  23  24  25 0
 3-21G
 ****
 27  28  30  31  32  35  37  42  43  44  45  46  47 0
 3-21G
 ****
 48  49 0
 3-21G
 ****


