%nproc=1
%NoSave
%Mem=1900MB
#P OB98/GEN NMR

erre ene a

0 1
  C      323.956     317.283     264.694
  O      322.867     316.829     263.872
  P      321.739     315.823     264.430
  C      321.553     313.334     265.076
  O      322.320     314.324     264.391
  C      322.057     311.911     264.762
  O      321.902     311.603     263.365
  C      323.535     311.685     265.074
  O      323.727     311.483     266.462
  C      323.843     310.471     264.200
  O      323.408     309.267     264.848
  C      322.984     310.756     262.960
  N      326.491     309.947     259.311
  C      325.916     309.116     260.216
  N      324.996     309.406     261.163
  C      324.649     310.709     261.099
  C      325.159     311.672     260.233
  C      326.122     311.249     259.309
  N      326.724     312.101     258.402
  N      324.583     312.898     260.489
  C      323.730     312.685     261.477
  N      323.738     311.373     261.874
  O      320.405     315.977     263.774
  O      321.652     316.147     265.997
  H      323.338     308.573     264.168
  H      320.750     315.938     266.321
  H      326.245     308.078     260.178
  H      323.086     313.437     261.929
  H      322.530     309.831     262.559
  H      324.909     310.361     263.990
  H      324.129     312.539     264.733
  H      321.437     311.209     265.329
  H      320.510     313.429     264.758
  H      327.429     311.722     257.792
  H      326.483     313.079     258.423
  H      321.623     313.526     266.148
  P      324.188     312.705     267.400
  C      325.958     314.558     267.320
  O      325.411     313.428     266.663
  O      324.423     312.362     268.834
  O      322.999     313.772     267.247
  H      322.923     314.296     268.061
  H      325.332     315.438     267.135
  H      326.959     314.745     266.920
  H      326.040     314.384     268.397
  H      324.582     317.939     264.126
  H      324.528     316.442     265.024
  H      323.568     317.806     265.543

 3  4  5  6  7  8  9  10  11  12  22  25  29  30  31  32 0
 6-311+G(2d,p)
 ****
 33  36  37 0
 6-311+G(2d,p)
 ****
 1  2  13  14  15  16  17  18  19  20  21  23  24  26 0
 3-21G
 ****
 27  28  34  35  38  39  40  41  42  43  44  45  46  47  48 0
 3-21G
 ****


