%nproc=1
%NoSave
%Mem=1900MB
#P OB98/GEN NMR

erre ene a

0 1
  C      259.353    -762.895     604.304
  O      258.417    -762.835     603.256
  P      258.777    -762.030     601.904
  C      256.261    -761.652     601.437
  O      257.552    -761.043     601.581
  C      255.171    -760.727     601.972
  O      255.237    -760.656     603.420
  C      255.287    -759.297     601.489
  O      254.904    -759.154     600.140
  C      254.377    -758.588     602.492
  O      252.989    -758.726     602.116
  C      254.664    -759.372     603.786
  N      255.533    -758.642     604.701
  C      255.204    -758.720     606.056
  O      254.179    -759.320     606.419
  N      256.032    -758.126     606.975
  C      257.045    -757.410     606.555
  N      257.869    -756.874     607.497
  C      257.320    -757.165     605.126
  C      256.555    -757.821     604.251
  O      259.228    -762.870     600.754
  O      259.935    -761.010     602.359
  H      260.673    -761.089     601.728
  H      252.460    -758.366     602.880
  H      258.120    -756.500     604.838
  H      256.685    -757.730     603.200
  H      253.714    -759.613     604.310
  H      254.586    -757.513     602.565
  H      256.313    -758.935     601.629
  H      254.197    -761.155     601.688
  H      257.651    -757.066     608.479
  H      256.268    -762.588     601.988
  H      258.825    -756.603     607.302
  H      256.094    -761.881     600.377
  P      255.497    -757.884     599.359
  C      255.282    -758.900     596.984
  O      254.868    -757.888     597.888
  O      257.031    -758.288     599.114
  O      255.385    -756.589     600.104
  H      257.606    -757.487     599.209
  H      254.536    -758.993     596.193
  H      255.339    -759.867     597.497
  H      256.238    -758.660     596.545
  H      258.947    -763.465     605.113
  H      259.574    -761.904     604.642
  H      260.250    -763.361     603.954

 3  4  5  6  7  8  9  10  11  12  13  24  27  28  29  30  32 0
 6-311+G(2d,p)
 ****
 34  35 0
 6-311+G(2d,p)
 ****
 1  2  14  15  16  17  18  19  20  21  22  23  25  26 0
 3-21G
 ****
 31  33  36  37  38  39  40  41  42  43  44  45  46 0
 3-21G
 ****


