%nproc=1
%NoSave
%Mem=1900MB
#P OB98/GEN NMR

erre ene a

0 1
  C      -70.039       6.260     -99.709
  O      -71.212       5.847     -99.039
  H      -69.580       7.072     -99.139
  H      -70.285       6.632    -100.707
  H      -69.324       5.438     -99.785
  P      -71.992       4.554     -99.576
  C      -74.309       4.979    -100.620
  O      -72.900       5.034    -100.806
  C      -74.767       6.160     -99.769
  O      -74.199       7.387    -100.280
  C      -76.274       6.376     -99.777
  O      -76.941       5.426     -98.969
  C      -76.359       7.812     -99.288
  O      -76.266       7.879     -97.860
  C      -75.117       8.452     -99.947
  N      -75.467       9.236    -101.131
  C      -75.823      10.561    -100.906
  O      -75.844      11.080     -99.792
  N      -76.221      11.266    -102.010
  C      -76.425      10.744    -103.255
  O      -77.013      11.345    -104.148
  C      -75.973       9.359    -103.447
  C      -75.533       8.674    -102.390
  O      -72.702       3.751     -98.539
  O      -70.845       3.696    -100.295
  H      -70.576       2.965     -99.707
  H      -75.419       7.445     -97.627
  H      -76.522      12.217    -101.848
  H      -76.051       8.931    -104.439
  H      -75.227       7.638    -102.499
  H      -74.600       9.106     -99.235
  H      -77.299       8.281     -99.583
  H      -76.650       6.328    -100.805
  H      -74.398       6.013     -98.747
  H      -74.559       4.043    -100.109
  H      -74.798       4.992    -101.600
  P      -78.513       5.179     -99.142
  C      -80.100       6.217     -97.409
  O      -79.290       6.452     -98.555
  O      -79.009       3.861     -98.648
  O      -78.754       5.317    -100.720
  H      -79.264       4.543    -101.029
  H      -80.566       7.132     -97.108
  H      -79.490       5.848     -96.611
  H      -80.852       5.494     -97.646

 6  7  8  9  10  11  12  13  14  15  16  27  31  32  33  34  35 0
 6-311+G(2d,p)
 ****
 36  37 0
 6-311+G(2d,p)
 ****
 1  2  3  4  5  17  18  19  20  21  22  23  24  25 0
 3-21G
 ****
 26  28  29  30  38  39  40  41  42  43  44  45 0
 3-21G
 ****


