%nproc=1
%NoSave
%Mem=1900MB
#P OB98/GEN NMR

erre ene a

0 1
  C      609.593     219.223      16.900
  O      609.224     218.323      15.874
  H      609.829     218.649      17.800
  H      608.775     219.916      17.128
  H      610.485     219.785      16.602
  P      608.567     218.929      14.538
  C      606.325     217.794      15.122
  O      606.990     219.022      14.841
  C      605.262     217.485      14.069
  O      604.638     216.206      14.326
  C      604.106     218.479      14.040
  O      604.456     219.777      13.623
  C      603.050     217.703      13.269
  O      603.225     217.789      11.857
  C      603.316     216.256      13.752
  N      602.309     215.797      14.698
  C      601.961     214.444      14.617
  O      602.439     213.672      13.786
  N      601.016     214.013      15.502
  C      600.356     214.791      16.417
  O      599.505     214.345      17.171
  C      600.736     216.213      16.438
  C      601.680     216.639      15.592
  O      608.895     218.206      13.262
  O      609.031     220.460      14.547
  H      602.992     218.697      11.599
  H      608.894     220.878      13.658
  H      600.762     213.037      15.464
  H      600.234     216.857      17.134
  H      601.982     217.688      15.590
  H      603.318     215.568      12.899
  H      602.039     218.060      13.490
  H      603.729     218.588      15.064
  H      605.754     217.426      13.095
  H      605.852     217.886      16.104
  H      607.062     216.988      15.166
  P      603.994     221.112      14.375
  C      601.968     221.359      12.737
  O      602.431     221.348      14.082
  O      604.915     222.283      14.277
  O      603.979     220.622      15.912
  H      604.243     221.391      16.458
  H      600.911     221.527      12.725
  H      602.184     220.417      12.278
  H      602.460     222.141      12.197

 6  7  8  9  10  11  12  13  14  15  16  26  31  32  33  34  35 0
 6-311+G(2d,p)
 ****
 36  37 0
 6-311+G(2d,p)
 ****
 1  2  3  4  5  17  18  19  20  21  22  23  24  25 0
 3-21G
 ****
 27  28  29  30  38  39  40  41  42  43  44  45 0
 3-21G
 ****


