%nproc=1
%NoSave
%Mem=1900MB
#P OB98/GEN NMR

erre ene a

0 1
  C       30.217     -82.726      49.106
  O       31.411     -82.044      49.506
  P       32.864     -82.700      49.319
  C       32.849     -83.670      51.697
  O       33.578     -82.901      50.747
  C       33.594     -83.849      53.028
  O       34.612     -84.881      52.920
  C       34.298     -82.590      53.551
  O       34.265     -82.683      54.976
  C       35.714     -82.780      53.035
  O       36.676     -81.988      53.716
  C       35.883     -84.282      53.234
  N       40.939     -84.904      52.711
  C       40.192     -84.470      53.748
  N       38.850     -84.368      53.825
  C       38.269     -84.810      52.698
  C       38.901     -85.290      51.562
  C       40.306     -85.318      51.589
  N       41.076     -85.714      50.519
  N       37.977     -85.622      50.590
  C       36.809     -85.336      51.131
  N       36.932     -84.846      52.404
  O       33.721     -82.014      48.304
  O       32.559     -84.201      48.848
  H       37.556     -82.199      53.356
  H       33.140     -84.424      48.096
  H       40.744     -84.157      54.630
  H       35.850     -85.442      50.640
  H       36.115     -84.522      54.279
  H       35.751     -82.505      51.973
  H       33.839     -81.660      53.207
  H       32.866     -84.210      53.766
  H       32.642     -84.654      51.263
  H       42.076     -85.611      50.601
  H       40.628     -85.904      49.635
  H       31.886     -83.179      51.881
  P       33.363     -81.702      55.864
  C       34.963     -79.712      56.009
  O       34.369     -80.790      56.710
  O       32.306     -82.381      56.671
  O       32.728     -80.675      54.811
  H       31.947     -80.245      55.207
  H       35.759     -80.090      55.361
  H       35.391     -79.012      56.729
  H       34.220     -79.185      55.402
  H       29.367     -82.112      49.320
  H       30.136     -83.648      49.643
  H       30.256     -82.928      48.056

 3  4  5  6  7  8  9  10  11  12  22  25  29  30  31  32 0
 6-311+G(2d,p)
 ****
 33  36  37 0
 6-311+G(2d,p)
 ****
 1  2  13  14  15  16  17  18  19  20  21  23  24  26 0
 3-21G
 ****
 27  28  34  35  38  39  40  41  42  43  44  45  46  47  48 0
 3-21G
 ****


