%nproc=1
%NoSave
%Mem=1900MB
#P OB98/GEN NMR

erre ene a

0 1
  C     -250.096    -497.714      82.311
  O     -249.297    -497.765      81.147
  H     -249.454    -497.860      83.184
  H     -250.846    -498.508      82.289
  H     -250.584    -496.741      82.394
  P     -250.048    -497.529      79.748
  C     -248.814    -495.275      79.332
  O     -250.061    -495.942      79.509
  C     -248.486    -495.180      77.846
  O     -248.289    -496.510      77.311
  C     -249.595    -494.561      77.000
  O     -249.600    -493.148      77.086
  C     -249.233    -495.081      75.610
  O     -248.226    -494.271      74.990
  C     -248.668    -496.473      75.916
  N     -249.739    -500.380      72.821
  C     -248.674    -499.552      72.893
  N     -248.456    -498.546      73.767
  C     -249.480    -498.436      74.628
  C     -250.637    -499.202      74.668
  C     -250.747    -500.219      73.709
  N     -251.849    -501.036      73.604
  N     -251.476    -498.756      75.669
  C     -250.838    -497.750      76.231
  N     -249.629    -497.526      75.637
  O     -251.573    -497.873      80.096
  O     -249.536    -498.342      78.605
  H     -248.552    -493.349      75.018
  H     -251.758    -498.801      79.866
  H     -247.895    -499.722      72.159
  H     -251.215    -497.154      77.051
  H     -247.768    -496.694      75.331
  H     -250.102    -495.085      74.951
  H     -250.568    -494.971      77.290
  H     -247.551    -494.623      77.729
  H     -248.028    -495.844      79.839
  H     -248.880    -494.278      79.778
  H     -251.871    -501.729      72.876
  H     -252.651    -500.856      74.194
  P     -250.983    -492.371      76.854
  C     -252.226    -492.858      79.091
  O     -252.117    -493.137      77.700
  O     -251.348    -492.721      75.334
  O     -250.921    -490.903      77.089
  H     -251.108    -491.978      74.746
  H     -253.020    -493.440      79.510
  H     -252.435    -491.818      79.231
  H     -251.306    -493.106      79.578

 6  7  8  9  10  11  12  13  14  15  25  28  32  33  34  35 0
 6-311+G(2d,p)
 ****
 36  37  40 0
 6-311+G(2d,p)
 ****
 1  2  3  4  5  16  17  18  19  20  21  22  23  24 0
 3-21G
 ****
 26  27  29  30  31  38  39 41  42  43  44  45  46  47  48 0
 3-21G
 ****


