%nproc=1
%NoSave
%Mem=1900MB
#P OB98/GEN NMR

erre ene a

0 1
  C     -582.864     294.162    -892.108
  O     -581.600     294.654    -892.498
  H     -583.607     294.954    -892.248
  H     -582.850     293.872    -891.048
  H     -583.146     293.301    -892.718
  P     -580.364     293.639    -892.368
  C     -580.368     292.919    -894.858
  O     -580.566     292.531    -893.518
  C     -581.262     292.105    -895.808
  O     -580.873     290.690    -895.718
  C     -582.756     292.202    -895.468
  O     -583.501     292.206    -896.698
  C     -583.034     290.888    -894.738
  O     -584.407     290.525    -894.808
  C     -582.086     289.957    -895.498
  N     -584.132     285.598    -893.998
  C     -584.645     286.585    -894.808
  N     -585.899     286.418    -895.298
  N     -583.990     287.675    -895.108
  C     -582.735     287.716    -894.578
  C     -582.128     286.804    -893.758
  C     -582.878     285.609    -893.408
  O     -582.489     284.682    -892.688
  N     -580.871     287.207    -893.398
  C     -580.718     288.384    -893.998
  N     -581.829     288.730    -894.728
  O     -580.672     292.833    -891.018
  O     -579.009     294.283    -892.348
  H     -584.493     289.643    -894.378
  H     -579.843     292.556    -890.578
  H     -584.688     284.776    -893.788
  H     -579.834     289.034    -893.948
  H     -582.489     289.633    -896.468
  H     -582.743     290.979    -893.678
  H     -586.444     285.584    -895.138
  H     -583.014     293.072    -894.868
  H     -586.274     287.146    -895.888
  H     -581.068     292.405    -896.838
  H     -579.307     292.751    -895.118
  H     -580.595     293.992    -894.978
  P     -584.262     293.570    -897.088
  C     -583.108     293.788    -899.418
  O     -583.353     294.374    -898.148
  O     -584.142     294.442    -895.758
  O     -585.682     293.377    -897.508
  H     -585.023     294.503    -895.338
  H     -582.493     294.442    -900.000
  H     -584.038     293.630    -899.923
  H     -582.608     292.851    -899.288

 6  7  8  9  10  11  12  13  14  15  26  29  33  34 0
 6-311+G(2d,p)
 ****
 36  38  39  40  41 0
 6-311+G(2d,p)
 ****
 1  2  3  4  5  16  17  18  19  20  21  22  23  24  25 0
 3-21G
 ****
 27  28  30  31  32  35  37  42  43  44  45  46  47 0
 3-21G
 ****
 48  49 0
 3-21G
 ****


