%nproc=1
%NoSave
%Mem=1900MB
#P OB98/GEN NMR

erre ene a

0 1
  C      -11.352     128.820      55.177
  O      -10.487     127.707      55.126
  P      -10.824     126.353      55.915
  C       -9.004     126.846      57.674
  O      -10.386     126.588      57.446
  C       -8.684     126.740      59.170
  O       -9.523     127.693      59.896
  C       -8.959     125.334      59.745
  O       -7.860     124.759      60.454
  C      -10.224     125.546      60.561
  O      -10.440     124.562      61.556
  C      -10.045     126.991      61.043
  N      -11.290     127.576      61.536
  C      -11.187     128.515      62.560
  O      -10.127     128.883      63.061
  N      -12.369     128.992      63.057
  C      -13.616     128.550      62.722
  O      -14.628     128.952      63.280
  C      -13.659     127.530      61.662
  C      -12.518     127.111      61.108
  O      -10.277     125.106      55.306
  O      -12.423     126.382      56.020
  H      -11.188     124.854      62.109
  H      -12.789     127.152      56.488
  H      -12.310     129.672      63.799
  H      -14.634     127.154      61.383
  H      -12.520     126.359      60.325
  H       -9.294     127.057      61.833
  H      -11.079     125.496      59.873
  H       -9.161     124.616      58.942
  H       -7.635     127.024      59.308
  H       -8.773     127.856      57.327
  H       -8.394     126.150      57.087
  P       -7.441     123.215      60.407
  C       -9.002     122.584      62.391
  O       -8.631     122.354      61.048
  O       -6.081     122.908      60.941
  O       -7.530     122.852      58.848
  H       -6.893     122.140      58.642
  H       -9.410     121.656      62.805
  H       -9.779     123.354      62.424
  H       -8.147     122.898      62.997
  H      -10.946     129.615      54.586
  H      -11.455     129.146      56.191
  H      -12.311     128.544      54.792

 3  4  5  6  7  8  9  10  11  12  13  23  28  29  30  31  32 0
 6-311+G(2d,p)
 ****
 33  34 0
 6-311+G(2d,p)
 ****
 1  2  14  15  16  17  18  19  20  21  22  24  25  26  27 0
 3-21G
 ****
 35  36  37  38  39  40  41  42  43  44  45 0
 3-21G
 ****


