%nproc=1
%NoSave
%Mem=1900MB
#P OB98/GEN NMR

erre ene a

0 1
  C     -917.745     938.074    -110.941
  O     -916.978     939.142    -111.475
  H     -917.829     937.292    -111.708
  H     -918.746     938.430    -110.675
  H     -917.249     937.642    -110.057
  P     -916.584     940.317    -110.453
  C     -915.193     941.278    -112.464
  O     -916.026     941.542    -111.333
  C     -915.159     942.528    -113.359
  O     -914.655     943.668    -112.649
  C     -914.198     942.395    -114.541
  O     -914.657     941.490    -115.542
  C     -914.122     943.837    -115.002
  O     -915.275     944.186    -115.780
  C     -914.119     944.579    -113.640
  N     -912.801     945.072    -113.278
  C     -912.232     946.008    -114.135
  O     -912.853     946.379    -115.142
  N     -910.964     946.492    -113.874
  C     -910.344     946.079    -112.827
  N     -909.096     946.572    -112.607
  C     -910.917     945.133    -111.851
  C     -912.130     944.651    -112.137
  O     -915.257     939.743    -109.747
  O     -917.667     940.723    -109.499
  H     -915.018     944.973    -116.296
  H     -914.573     939.469    -110.384
  H     -910.344     944.814    -110.974
  H     -912.619     943.940    -111.503
  H     -914.806     945.464    -113.680
  H     -913.239     944.035    -115.620
  H     -913.202     942.104    -114.181
  H     -916.164     942.737    -113.693
  H     -908.716     947.218    -113.298
  H     -915.566     940.416    -113.033
  H     -908.488     946.312    -111.846
  H     -914.199     941.060    -112.082
  P     -913.819     940.191    -115.909
  C     -915.878     938.958    -116.826
  O     -914.596     939.490    -117.128
  O     -913.487     939.255    -114.764
  O     -912.529     940.789    -116.643
  H     -912.710     941.309    -117.440
  H     -916.298     938.519    -117.707
  H     -916.517     939.743    -116.479
  H     -915.784     938.211    -116.065

 6  7  8  9  10  11  12  13  14  15  16  26  30  31  32  33  35 0
 6-311+G(2d,p)
 ****
 37  38 0
 6-311+G(2d,p)
 ****
 1  2  3  4  5  17  18  19  20  21  22  23  24  25 0
 3-21G
 ****
 27  28  29  34  36  39  40  41  42  43  44  45  46 0
 3-21G
 ****


