%nproc=1
%NoSave
%Mem=1900MB
#P OB98/GEN NMR

erre ene a

0 1
  C      816.543    -356.636     -51.792
  O      815.771    -355.549     -51.298
  P      815.184    -354.440     -52.303
  C      812.727    -355.211     -52.033
  O      813.848    -355.095     -52.905
  C      811.849    -353.971     -52.157
  O      811.381    -353.843     -53.517
  C      810.595    -354.004     -51.295
  O      810.908    -353.727     -49.934
  C      809.732    -352.956     -51.989
  O      810.143    -351.631     -51.606
  C      810.081    -353.200     -53.474
  N      809.078    -353.997     -54.168
  C      808.192    -353.306     -54.998
  O      808.275    -352.083     -55.139
  N      807.244    -354.021     -55.697
  C      807.173    -355.307     -55.560
  N      806.258    -355.969     -56.316
  C      808.052    -356.069     -54.649
  C      808.974    -355.361     -53.995
  O      816.151    -353.945     -53.326
  O      814.606    -353.298     -51.346
  H      809.709    -351.011     -52.226
  H      815.275    -352.612     -51.102
  H      807.936    -357.145     -54.557
  H      809.669    -355.851     -53.329
  H      810.193    -352.244     -53.999
  H      808.668    -353.048     -51.769
  H      810.107    -354.983     -51.356
  H      812.459    -353.089     -51.919
  H      805.807    -355.432     -57.051
  H      813.096    -355.285     -51.004
  H      806.331    -356.969     -56.484
  H      812.173    -356.120     -52.285
  P      810.404    -354.773     -48.829
  C      812.800    -355.405     -48.092
  O      811.588    -355.844     -48.662
  O      809.244    -355.577     -49.579
  O      809.924    -354.144     -47.555
  H      808.364    -355.247     -49.310
  H      813.403    -356.286     -47.828
  H      812.618    -354.821     -47.180
  H      813.357    -354.801     -48.810
  H      816.841    -357.261     -50.977
  H      817.413    -356.259     -52.289
  H      815.956    -357.205     -52.482

 3  4  5  6  7  8  9  10  11  12  13  23  27  28  29  30  32 0
 6-311+G(2d,p)
 ****
 34  35 0
 6-311+G(2d,p)
 ****
 1  2  14  15  16  17  18  19  20  21  22  24  25  26 0
 3-21G
 ****
 31  33  36  37  38  39  40  41  42  43  44  45  46 0
 3-21G
 ****


