%nproc=1
%NoSave
%Mem=1900MB
#P OB98/GEN NMR

erre ene a

0 1
  C      148.650    -191.436    -246.551
  O      148.271    -192.806    -246.662
  P      148.972    -194.016    -245.895
  C      147.152    -195.877    -245.506
  O      148.225    -195.371    -246.292
  C      145.814    -195.256    -245.933
  O      145.606    -195.526    -247.354
  C      144.621    -195.854    -245.180
  O      143.656    -194.887    -244.780
  C      144.151    -196.956    -246.113
  O      142.815    -197.371    -245.871
  C      144.427    -196.350    -247.487
  N      142.217    -199.626    -250.719
  C      141.651    -198.891    -249.697
  N      140.327    -199.054    -249.493
  N      142.327    -198.075    -248.930
  C      143.652    -198.062    -249.191
  C      144.333    -198.758    -250.165
  C      143.566    -199.618    -251.041
  O      144.013    -200.278    -251.973
  N      145.677    -198.483    -250.128
  C      145.811    -197.639    -249.127
  N      144.608    -197.348    -248.527
  O      149.245    -193.799    -244.444
  O      150.396    -194.165    -246.638
  H      142.796    -197.821    -245.004
  H      151.029    -194.476    -245.958
  H      141.642    -200.221    -251.293
  H      146.747    -197.199    -248.800
  H      143.608    -195.709    -247.826
  H      144.792    -197.829    -245.945
  H      139.773    -199.751    -249.961
  H      144.942    -196.300    -244.232
  H      139.965    -198.687    -248.609
  H      145.872    -194.171    -245.800
  H      147.380    -195.595    -244.471
  H      147.116    -196.966    -245.551
  P      143.124    -194.558    -243.310
  C      142.699    -192.030    -243.416
  O      142.114    -193.319    -243.399
  O      144.385    -193.935    -242.542
  O      142.592    -195.735    -242.560
  H      144.615    -194.500    -241.779
  H      141.923    -191.290    -243.209
  H      143.127    -191.831    -244.402
  H      143.478    -191.947    -242.653
  H      148.015    -190.839    -247.171
  H      149.666    -191.320    -246.865
  H      148.554    -191.121    -245.533

 3  4  5  6  7  8  9  10  11  12  23  26  30  31 0
 6-311+G(2d,p)
 ****
 33  35  36  37  38 0
 6-311+G(2d,p)
 ****
 1  2  13  14  15  16  17  18  19  20  21  22  24  25 0
 3-21G
 ****
 27  28  29  32  34  39  40  41  42  43  44  45  46  47  48  49 0
 3-21G
 ****


