%nproc=1
%NoSave
%Mem=1900MB
#P OB98/GEN NMR

erre ene a

0 1
  C     -936.401    1848.133     779.027
  O     -937.391    1849.143     779.215
  P     -938.922    1848.693     779.068
  C     -939.770    1850.651     777.575
  O     -939.787    1850.038     778.840
  C     -940.848    1851.719     777.481
  O     -942.114    1851.169     777.852
  C     -940.634    1852.931     778.394
  O     -939.626    1853.783     777.909
  C     -942.044    1853.504     778.420
  O     -942.266    1854.274     777.211
  C     -942.934    1852.227     778.414
  N     -946.860    1852.214     781.707
  C     -946.731    1852.697     780.464
  N     -945.649    1852.701     779.632
  C     -944.635    1852.092     780.254
  C     -944.586    1851.549     781.536
  C     -945.743    1851.635     782.284
  N     -945.889    1851.130     783.549
  N     -943.331    1851.040     781.812
  C     -942.631    1851.269     780.719
  N     -943.363    1851.867     779.763
  O     -939.307    1848.254     780.565
  O     -939.199    1847.602     778.064
  H     -943.185    1854.618     777.260
  H     -939.951    1847.511     780.549
  H     -947.628    1853.157     780.039
  H     -941.573    1850.963     780.594
  H     -943.814    1852.360     777.789
  H     -942.210    1854.198     779.282
  H     -940.371    1852.579     779.422
  H     -940.897    1852.076     776.418
  H     -939.938    1849.886     776.794
  H     -946.729    1851.352     784.088
  H     -945.052    1850.822     784.014
  H     -938.765    1851.085     777.388
  P     -938.220    1853.789     778.667
  C     -938.346    1856.276     779.263
  O     -937.692    1855.291     778.509
  O     -937.301    1852.953     777.646
  O     -938.268    1853.269     780.077
  H     -937.380    1853.305     776.737
  H     -937.867    1857.242     779.077
  H     -938.292    1856.037     780.329
  H     -939.394    1856.368     778.957
  H     -935.428    1848.560     779.151
  H     -936.489    1847.726     778.041
  H     -936.544    1847.355     779.748

 3  4  5  6  7  8  9  10  11  12  22  25  29  30  31  32 0
 6-311+G(2d,p)
 ****
 33  36  37 0
 6-311+G(2d,p)
 ****
 1  2  13  14  15  16  17  18  19  20  21  23  24  26 0
 3-21G
 ****
 27  28  34  35  38  39  40  41  42  43  44  45  46  47  48 0
 3-21G
 ****


