%nproc=1
%NoSave
%Mem=1900MB
#P OB98/GEN NMR

erre ene a

0 1
  C     -641.729    -349.160     105.107
  O     -641.303    -349.262     106.461
  P     -641.107    -350.746     107.068
  C     -642.618    -352.857     107.064
  O     -642.546    -351.437     107.032
  C     -643.951    -353.309     107.657
  O     -645.056    -352.722     106.938
  C     -644.182    -354.821     107.588
  O     -643.522    -355.509     108.633
  C     -645.696    -354.880     107.774
  O     -646.023    -354.766     109.173
  C     -646.164    -353.652     106.994
  N     -650.100    -353.551     103.798
  C     -649.949    -352.958     105.040
  N     -651.027    -352.295     105.521
  N     -648.840    -352.997     105.753
  C     -647.862    -353.721     105.145
  C     -647.879    -354.336     103.913
  C     -649.110    -354.284     103.154
  O     -649.314    -354.833     102.078
  N     -646.682    -354.952     103.648
  C     -645.925    -354.681     104.695
  N     -646.612    -353.969     105.647
  O     -640.866    -350.466     108.629
  O     -639.992    -351.530     106.457
  H     -645.950    -353.818     109.396
  H     -640.476    -351.252     109.046
  H     -650.960    -353.480     103.307
  H     -644.903    -355.005     104.817
  H     -646.993    -353.133     107.505
  H     -646.117    -355.832     107.427
  H     -651.919    -352.269     105.058
  H     -643.917    -355.209     106.599
  H     -650.969    -351.895     106.457
  H     -644.001    -352.964     108.695
  H     -641.798    -353.240     107.671
  H     -642.507    -353.242     106.044
  P     -643.261    -357.077     108.401
  C     -644.796    -359.170     108.432
  O     -644.656    -357.796     108.715
  O     -642.315    -357.476     109.637
  O     -642.627    -357.404     107.086
  H     -641.775    -358.245     109.423
  H     -645.687    -359.553     108.944
  H     -643.924    -359.731     108.785
  H     -644.910    -359.332     107.354
  H     -641.817    -348.128     104.838
  H     -642.678    -349.640     104.995
  H     -641.012    -349.635     104.471

 3  4  5  6  7  8  9  10  11  12  23  26  30  31 0
 6-311+G(2d,p)
 ****
 33  35  36  37  38 0
 6-311+G(2d,p)
 ****
 1  2  13  14  15  16  17  18  19  20  21  22  24  25 0
 3-21G
 ****
 27  28  29  32  34  39  40  41  42  43  44  45  46  47  48  49 0
 3-21G
 ****


