%nproc=1
%NoSave
%Mem=1900MB
#P OB98/GEN NMR

erre ene a

0 1
  C      -33.673    -892.660     334.993
  O      -32.691    -893.630     335.403
  P      -31.520    -893.140     336.390
  C      -29.561    -893.920     334.846
  O      -30.224    -894.040     336.106
  C      -28.353    -894.860     334.780
  O      -27.320    -894.490     335.731
  C      -28.696    -896.320     335.104
  O      -29.233    -897.000     333.971
  C      -27.325    -896.890     335.447
  O      -26.607    -897.180     334.246
  C      -26.676    -895.710     336.184
  N      -24.193    -895.550     340.605
  C      -23.728    -895.400     339.302
  N      -22.400    -895.190     339.162
  N      -24.482    -895.470     338.262
  C      -25.793    -895.690     338.535
  C      -26.381    -895.850     339.785
  C      -25.532    -895.780     340.945
  O      -25.881    -895.920     342.113
  N      -27.745    -896.040     339.666
  C      -27.982    -895.980     338.366
  N      -26.819    -895.810     337.628
  O      -32.017    -893.680     337.835
  O      -31.301    -891.660     336.404
  H      -27.245    -897.630     333.636
  H      -31.670    -893.120     338.534
  H      -23.565    -895.490     341.382
  H      -28.951    -896.090     337.907
  H      -25.617    -895.610     335.980
  H      -27.383    -897.810     336.022
  H      -21.773    -895.070     339.946
  H      -29.370    -896.390     335.988
  H      -22.050    -895.050     338.231
  H      -27.953    -894.820     333.769
  H      -29.225    -892.880     334.689
  H      -30.285    -894.140     334.048
  P      -30.834    -897.020     333.788
  C      -30.942    -899.040     335.400
  O      -31.300    -898.510     334.144
  O      -30.987    -896.930     332.185
  O      -31.550    -895.910     334.483
  H      -31.811    -896.480     331.971
  H      -31.473    -900.000     335.552
  H      -31.210    -898.360     336.214
  H      -29.856    -899.260     335.443
  H      -34.384    -893.125     334.343
  H      -33.188    -891.858     334.476
  H      -34.176    -892.276     335.855

 3  4  5  6  7  8  9  10  11  12  23  26  30  31 0
 6-311+G(2d,p)
 ****
 33  35  36  37  38 0
 6-311+G(2d,p)
 ****
 1  2  13  14  15  16  17  18  19  20  21  22  24  25 0
 3-21G
 ****
 27  28  29  32  34  39  40  41  42  43  44  45  46  47  48  49 0
 3-21G
 ****


