%nproc=1
%NoSave
%Mem=1900MB
#P OB98/GEN NMR

erre ene a

0 1
  C     -267.641     198.565     180.313
  O     -266.459     197.795     180.247
  H     -268.313     198.115     181.050
  H     -268.142     198.581     179.341
  H     -267.406     199.587     180.627
  P     -265.383     198.230     179.135
  C     -263.530     198.401     180.963
  O     -264.297     199.068     179.972
  C     -262.433     199.323     181.482
  O     -263.004     200.472     182.150
  C     -261.504     198.685     182.512
  O     -260.536     197.825     181.939
  C     -260.871     199.934     183.102
  O     -259.907     200.470     182.178
  C     -262.104     200.855     183.224
  N     -262.777     200.743     184.523
  C     -262.376     201.647     185.516
  O     -261.503     202.483     185.289
  N     -262.956     201.560     186.760
  C     -263.866     200.668     186.988
  N     -264.401     200.629     188.239
  C     -264.327     199.704     185.970
  C     -263.747     199.798     184.776
  O     -266.144     199.370     178.307
  O     -264.822     197.129     178.301
  H     -259.205     199.799     182.087
  H     -265.515     199.810     177.685
  H     -265.082     198.969     186.212
  H     -264.035     199.124     183.975
  H     -261.827     201.903     183.064
  H     -260.346     199.749     184.038
  H     -262.067     198.170     183.297
  H     -261.870     199.695     180.616
  H     -264.024     201.261     188.933
  H     -263.089     197.506     180.511
  H     -265.002     199.881     188.558
  H     -264.175     198.099     181.796
  P     -260.659     196.256     182.258
  C     -259.939     195.658     179.828
  O     -260.910     195.513     180.859
  O     -262.074     196.147     182.992
  O     -259.552     195.693     183.091
  H     -262.062     195.449     183.675
  H     -260.250     195.106     178.965
  H     -258.997     195.284     180.170
  H     -259.841     196.693     179.574

 6  7  8  9  10  11  12  13  14  15  16  26  30  31  32  33  35 0
 6-311+G(2d,p)
 ****
 37  38 0
 6-311+G(2d,p)
 ****
 1  2  3  4  5  17  18  19  20  21  22  23  24  25 0
 3-21G
 ****
 27  28  29  34  36  39  40  41  42  43  44  45  46 0
 3-21G
 ****


