%nproc=1
%NoSave
%Mem=1900MB
#P OB98/GEN NMR

erre ene a

0 1
  C      -60.312    -335.529    -467.412
  O      -59.557    -336.323    -466.516
  H      -60.273    -335.986    -468.407
  H      -59.892    -334.522    -467.469
  H      -61.356    -335.479    -467.085
  P      -59.407    -335.759    -465.020
  C      -61.450    -337.022    -463.994
  O      -60.910    -335.789    -464.453
  C      -61.744    -336.931    -462.500
  O      -62.516    -335.747    -462.207
  C      -62.569    -338.097    -461.954
  O      -61.790    -339.268    -461.741
  C      -63.060    -337.497    -460.656
  O      -61.997    -337.496    -459.683
  C      -63.411    -336.053    -461.101
  N      -64.811    -335.905    -461.506
  C      -65.780    -336.319    -460.587
  O      -65.449    -336.802    -459.499
  N      -67.107    -336.217    -460.933
  C      -67.435    -335.724    -462.088
  N      -68.766    -335.661    -462.384
  C      -66.450    -335.262    -463.079
  C      -65.176    -335.378    -462.728
  O      -59.149    -334.192    -465.230
  O      -58.392    -336.440    -464.159
  H      -61.720    -338.424    -459.570
  H      -59.164    -333.728    -464.357
  H      -66.776    -334.874    -464.034
  H      -64.392    -335.059    -463.411
  H      -63.200    -335.336    -460.296
  H      -63.895    -338.051    -460.210
  H      -63.429    -338.312    -462.593
  H      -60.786    -336.838    -461.968
  H      -69.421    -336.044    -461.709
  H      -60.717    -337.814    -464.190
  H      -69.109    -335.465    -463.319
  H      -62.371    -337.254    -464.535
  P      -62.564    -340.673    -461.669
  C      -62.612    -341.081    -464.244
  O      -63.362    -340.835    -463.058
  O      -63.724    -340.395    -460.607
  O      -61.715    -341.847    -461.284
  H      -63.875    -341.172    -460.036
  H      -63.279    -341.164    -465.077
  H      -62.062    -341.992    -464.135
  H      -61.932    -340.272    -464.411

 6  7  8  9  10  11  12  13  14  15  16  26  30  31  32  33  35 0
 6-311+G(2d,p)
 ****
 37  38 0
 6-311+G(2d,p)
 ****
 1  2  3  4  5  17  18  19  20  21  22  23  24  25 0
 3-21G
 ****
 27  28  29  34  36  39  40  41  42  43  44  45  46 0
 3-21G
 ****


