%nproc=1
%NoSave
%Mem=1900MB
#P OB98/GEN NMR

erre ene a

0 1
  C      -30.068     -72.433     282.352
  O      -29.831     -72.709     280.967
  P      -30.583     -71.755     279.912
  C      -31.495     -73.812     278.612
  O      -30.784     -72.582     278.547
  C      -31.085     -74.769     277.489
  O      -31.301     -74.124     276.210
  C      -29.616     -75.213     277.529
  O      -29.542     -76.582     277.109
  C      -28.968     -74.368     276.446
  O      -27.765     -74.955     275.954
  C      -30.106     -74.300     275.430
  N      -27.479     -72.566     271.470
  C      -27.418     -73.796     272.101
  N      -26.512     -74.675     271.621
  N      -28.178     -74.129     273.111
  C      -29.059     -73.161     273.462
  C      -29.223     -71.910     272.911
  C      -28.344     -71.539     271.821
  O      -28.314     -70.450     271.256
  N      -30.220     -71.208     273.544
  C      -30.654     -72.031     274.477
  N      -29.974     -73.224     274.474
  O      -29.467     -70.667     279.547
  O      -31.814     -71.112     280.455
  H      -28.027     -75.675     275.349
  H      -29.805     -69.770     279.727
  H      -26.854     -72.353     270.711
  H      -31.431     -71.808     275.196
  H      -30.201     -75.240     274.874
  H      -28.727     -73.379     276.852
  H      -25.943     -74.507     270.805
  H      -29.134     -75.094     278.502
  H      -26.485     -75.597     272.040
  H      -31.745     -75.643     277.526
  H      -32.568     -73.611     278.538
  H      -31.310     -74.272     279.589
  P      -29.568     -77.687     278.270
  C      -27.574     -79.152     277.468
  O      -28.974     -79.025     277.618
  O      -31.127     -78.009     278.440
  O      -28.936     -77.245     279.550
  H      -31.314     -78.316     279.347
  H      -27.027     -78.376     278.011
  H      -27.323     -79.087     276.406
  H      -27.264     -80.130     277.847
  H      -29.519     -73.127     282.953
  H      -31.113     -72.529     282.561
  H      -29.749     -71.437     282.577

 3  4  5  6  7  8  9  10  11  12  23  26  30  31  33  0
 6-311+G(2d,p)
 ****
 35  36  37  38 0
 6-311+G(2d,p)
 ****
 1  2  13  14  15  16  17  18  19  20  21  22  24  25  27  28  29 0
 3-21G
 ****
 32  34  39  40  41  42  43  44  45  46  47  48  49 0
 3-21G
 ****


