%nproc=1
%NoSave
%Mem=1900MB
#P OB98/GEN NMR

erre ene a

0 1
  C     -349.271     475.260     401.482
  O     -348.244     474.672     402.253
  H     -349.591     476.184     401.968
  H     -350.129     474.585     401.412
  H     -348.900     475.496     400.480
  P     -347.698     473.245     401.768
  C     -346.769     474.230     399.550
  O     -346.490     473.526     400.754
  C     -345.509     474.287     398.691
  O     -344.732     475.459     399.038
  C     -344.569     473.108     398.885
  O     -344.995     471.946     398.190
  C     -343.275     473.673     398.333
  O     -343.202     473.536     396.905
  C     -343.354     475.155     398.744
  N     -342.472     475.448     399.872
  C     -341.208     475.923     399.544
  O     -340.831     476.098     398.386
  N     -340.368     476.162     400.598
  C     -340.646     475.925     401.912
  O     -339.822     476.106     402.805
  C     -341.993     475.403     402.200
  C     -342.831     475.189     401.182
  O     -348.872     472.706     400.825
  O     -347.383     472.286     402.869
  H     -349.363     471.998     401.280
  H     -342.333     473.899     396.644
  H     -339.446     476.510     400.381
  H     -342.246     475.203     403.231
  H     -343.827     474.797     401.366
  H     -343.061     475.803     397.909
  H     -342.414     473.158     398.749
  H     -344.439     472.897     399.956
  H     -345.809     474.373     397.638
  H     -347.085     475.252     399.787
  H     -347.583     473.723     399.022
  P     -344.414     470.529     398.670
  C     -346.250     470.542     400.558
  O     -345.593     469.842     399.515
  O     -343.353     471.009     399.767
  O     -343.855     469.716     397.554
  H     -343.599     471.861     400.162
  H     -346.999     469.913     400.993
  H     -346.710     471.423     400.162
  H     -345.537     470.818     401.307

 6  7  8  9  10  11  12  13  14  15  16  27  31  32  33  34  35 0
 6-311+G(2d,p)
 ****
 36  37 0
 6-311+G(2d,p)
 ****
 1  2  3  4  5  17  18  19  20  21  22  23  24  25 0
 3-21G
 ****
 26  28  29  30  38  39  40  41  42  43  44  45 0
 3-21G
 ****


