%nproc=1
%NoSave
%Mem=1900MB
#P OB98/GEN NMR

erre ene a

0 1
  C     -264.800     301.344     356.692
  O     -263.407     301.532     356.812
  H     -265.112     300.589     357.418
  H     -265.040     300.987     355.686
  H     -265.341     302.268     356.899
  P     -262.732     302.799     356.106
  C     -260.441     301.616     355.938
  O     -261.161     302.741     356.429
  C     -259.208     301.334     356.811
  O     -259.651     300.864     358.114
  C     -258.330     300.236     356.206
  O     -256.959     300.378     356.578
  C     -258.887     298.972     356.849
  O     -257.949     297.894     356.861
  C     -259.267     299.482     358.236
  N     -260.580     295.386     360.982
  C     -259.366     295.694     360.390
  N     -258.374     294.784     360.552
  N     -259.154     296.772     359.687
  C     -260.260     297.549     359.543
  C     -261.515     297.345     360.058
  C     -261.729     296.159     360.867
  O     -262.788     295.831     361.396
  N     -262.377     298.349     359.692
  C     -261.645     299.157     358.951
  N     -260.340     298.731     358.852
  O     -263.222     304.033     356.999
  O     -263.079     302.996     354.663
  H     -258.451     297.081     357.059
  H     -263.173     304.860     356.494
  H     -260.679     294.555     361.532
  H     -261.998     300.066     358.485
  H     -258.404     299.441     358.913
  H     -259.748     298.647     356.267
  H     -258.557     293.857     360.919
  H     -258.403     300.188     355.121
  H     -257.600     294.833     359.884
  H     -258.653     302.268     356.987
  H     -260.141     301.845     354.914
  H     -261.092     300.741     355.900
  P     -255.865     300.488     355.416
  C     -254.260     298.556     356.275
  O     -254.461     299.917     355.934
  O     -255.604     302.060     355.285
  O     -256.275     299.880     354.111
  H     -255.891     302.377     354.404
  H     -253.248     298.413     356.592
  H     -254.456     297.942     355.421
  H     -254.924     298.285     357.069

 6  7  8  9  10  11  12  13  14  15  26  29  33  34 0
 6-311+G(2d,p)
 ****
 36  38  39  40  41 0
 6-311+G(2d,p)
 ****
 1  2  3  4  5  16  17  18  19  20  21  22  23  24  25 0
 3-21G
 ****
 27  28  30  31  32  35  37  42  43  44  45  46  47 0
 3-21G
 ****
 48  49 0
 3-21G
 ****


