%nproc=1
%NoSave
%Mem=1900MB
#P OB98/GEN NMR

erre ene a

0 1
  C     -179.676    -320.135    -201.805
  O     -179.764    -321.006    -202.916
  H     -178.703    -320.274    -201.331
  H     -180.454    -320.371    -201.081
  H     -179.771    -319.093    -202.129
  P     -181.117    -320.953    -203.780
  C     -181.970    -323.264    -202.931
  O     -182.170    -321.862    -202.965
  C     -183.131    -323.965    -202.214
  O     -184.361    -323.678    -202.925
  C     -182.980    -325.479    -202.135
  O     -183.358    -325.933    -200.827
  C     -183.935    -326.018    -203.180
  O     -184.387    -327.336    -202.893
  C     -185.027    -324.925    -203.200
  N     -185.739    -324.888    -204.471
  C     -187.122    -325.114    -204.429
  O     -187.679    -325.347    -203.363
  N     -187.829    -325.125    -205.606
  C     -187.199    -324.980    -206.738
  N     -187.941    -325.026    -207.868
  C     -185.731    -324.794    -206.827
  C     -185.080    -324.746    -205.667
  O     -180.761    -321.853    -205.057
  O     -181.603    -319.583    -204.124
  H     -185.058    -327.582    -203.587
  H     -181.420    -321.736    -205.780
  H     -185.249    -324.700    -207.794
  H     -183.997    -324.608    -205.647
  H     -185.751    -325.108    -202.388
  H     -183.431    -326.042    -204.159
  H     -181.962    -325.823    -202.337
  H     -183.237    -323.516    -201.218
  H     -188.935    -325.170    -207.768
  H     -181.030    -323.473    -202.396
  H     -187.562    -324.966    -208.805
  H     -181.887    -323.646    -203.950
  P     -182.178    -326.544    -199.917
  C     -182.436    -329.089    -200.334
  O     -181.702    -327.914    -200.615
  O     -182.928    -327.020    -198.598
  O     -181.085    -325.568    -199.638
  H     -182.823    -326.369    -197.891
  H     -182.006    -329.913    -200.864
  H     -183.452    -328.957    -200.642
  H     -182.405    -329.286    -199.283

 6  7  8  9  10  11  12  13  14  15  16  26  30  31  32  33  35 0
 6-311+G(2d,p)
 ****
 37  38 0
 6-311+G(2d,p)
 ****
 1  2  3  4  5  17  18  19  20  21  22  23  24  25 0
 3-21G
 ****
 27  28  29  34  36  39  40  41  42  43  44  45  46 0
 3-21G
 ****


