%nproc=1
%NoSave
%Mem=1900MB
#P OB98/GEN NMR

erre ene a

0 1
  C     -148.469    -114.882    -143.328
  O     -149.746    -115.253    -142.856
  P     -150.827    -115.929    -143.823
  C     -149.935    -118.225    -143.067
  O     -150.279    -117.399    -144.175
  C     -151.089    -119.179    -142.738
  O     -151.458    -119.901    -143.954
  C     -150.716    -120.221    -141.664
  O     -151.625    -120.286    -140.564
  C     -150.575    -121.501    -142.472
  O     -150.697    -122.682    -141.704
  C     -151.613    -121.284    -143.579
  N     -151.424    -122.193    -144.708
  C     -152.550    -122.859    -145.181
  O     -153.680    -122.726    -144.721
  N     -152.335    -123.759    -146.188
  C     -151.122    -124.136    -146.677
  O     -150.994    -125.022    -147.512
  C     -149.964    -123.426    -146.112
  C     -150.162    -122.486    -145.185
  O     -151.215    -115.118    -145.014
  O     -152.044    -116.257    -142.835
  H     -150.052    -122.633    -140.974
  H     -151.823    -116.853    -142.097
  H     -153.142    -124.249    -146.539
  H     -148.987    -123.712    -146.475
  H     -149.329    -121.946    -144.750
  H     -152.629    -121.408    -143.203
  H     -149.570    -121.508    -142.912
  H     -149.754    -119.978    -141.197
  H     -151.943    -118.574    -142.421
  H     -149.740    -117.588    -142.201
  H     -149.014    -118.776    -143.287
  P     -151.261    -120.823    -139.101
  C     -150.899    -118.428    -138.154
  O     -150.363    -119.716    -138.373
  O     -150.717    -122.211    -139.051
  O     -152.653    -120.734    -138.315
  H     -152.679    -121.420    -137.620
  H     -150.080    -117.706    -138.141
  H     -151.399    -118.407    -137.182
  H     -151.608    -118.148    -138.938
  H     -147.904    -114.451    -142.528
  H     -148.574    -114.166    -144.116
  H     -147.960    -115.748    -143.698

 3  4  5  6  7  8  9  10  11  12  13  23  28  29  30  31  32 0
 6-311+G(2d,p)
 ****
 33  34 0
 6-311+G(2d,p)
 ****
 1  2  14  15  16  17  18  19  20  21  22  24  25  26  27 0
 3-21G
 ****
 35  36  37  38  39  40  41  42  43  44  45 0
 3-21G
 ****


