%nproc=1
%NoSave
%Mem=1900MB
#P OB98/GEN NMR

erre ene a

0 1
  C        6.320     140.362      52.030
  O        7.407     140.565      51.149
  H        5.391     140.416      51.460
  H        6.309     141.140      52.799
  H        6.392     139.378      52.500
  P        8.876     140.502      51.791
  C        9.998     141.684      53.817
  O        8.961     141.709      52.844
  C       10.369     143.111      54.208
  O       11.069     143.751      53.116
  C        9.169     144.003      54.498
  O        8.626     143.776      55.786
  C        9.783     145.384      54.333
  O       10.457     145.803      55.526
  C       10.792     145.168      53.200
  N       11.518     148.620      49.510
  C       12.231     148.320      50.618
  N       11.976     147.375      51.547
  C       10.870     146.683      51.226
  C       10.044     146.871      50.131
  C       10.407     147.895      49.241
  N        9.670     148.218      48.126
  N        8.982     145.991      50.166
  C        9.165     145.277      51.258
  N       10.295     145.656      51.929
  O        9.817     140.979      50.588
  O        9.280     139.167      52.318
  H       11.002     146.575      55.276
  H       10.222     140.199      50.163
  H       13.116     148.926      50.786
  H        8.511     144.487      51.606
  H       11.746     145.674      53.391
  H        9.018     146.125      54.106
  H        8.401     143.865      53.726
  H       11.045     143.074      55.072
  H       10.878     141.185      53.398
  H        9.651     141.122      54.690
  H        9.951     149.008      47.570
  H        8.779     147.760      47.979
  P        7.052     143.486      55.889
  C        4.884     144.778      55.231
  O        6.292     144.818      55.426
  O        6.778     143.420      57.464
  O        6.602     142.245      55.195
  H        6.090     142.754      57.654
  H        4.539     145.744      54.925
  H        4.405     144.501      56.147
  H        4.649     144.059      54.474

 6  7  8  9  10  11  12  13  14  15  25  28  32  33  34  35 0
 6-311+G(2d,p)
 ****
 36  37  40 0
 6-311+G(2d,p)
 ****
 1  2  3  4  5  16  17  18  19  20  21  22  23  24 0
 3-21G
 ****
 26  27  29  30  31  38  39 41  42  43  44  45  46  47  48 0
 3-21G
 ****


