%nproc=1
%NoSave
%Mem=1900MB
#P OB98/GEN NMR

erre ene a

0 1
  C      196.895     471.067    -539.625
  O      197.792     472.155    -539.711
  H      196.726     470.833    -538.571
  H      197.319     470.189    -540.119
  H      195.938     471.326    -540.086
  P      198.156     472.674    -541.185
  C      199.901     472.007    -542.995
  O      199.401     471.791    -541.679
  C      201.389     471.669    -543.039
  O      201.599     470.329    -542.529
  C      201.975     471.665    -544.444
  O      202.246     472.973    -544.918
  C      203.227     470.825    -544.236
  O      204.311     471.613    -543.722
  C      202.772     469.800    -543.192
  N      204.068     464.860    -543.293
  C      204.500     465.892    -542.530
  N      204.091     467.183    -542.556
  C      203.119     467.351    -543.471
  C      202.584     466.396    -544.316
  C      203.096     465.095    -544.200
  N      202.681     464.046    -544.995
  N      201.630     466.958    -545.144
  C      201.591     468.232    -544.799
  N      202.467     468.513    -543.789
  O      198.796     474.115    -540.915
  O      197.005     472.745    -542.134
  H      204.479     472.308    -544.388
  H      198.125     474.808    -541.087
  H      205.273     465.655    -541.810
  H      200.949     468.979    -545.256
  H      203.530     469.627    -542.420
  H      203.557     470.383    -545.175
  H      201.306     471.134    -545.133
  H      201.930     472.369    -542.390
  H      199.763     473.060    -543.266
  H      199.341     471.382    -543.693
  H      203.143     463.158    -544.903
  H      202.035     464.234    -545.751
  P      202.438     473.168    -546.499
  C      204.003     472.162    -548.322
  O      203.702     472.284    -546.935
  O      202.955     474.673    -546.640
  O      201.203     472.922    -547.307
  H      202.594     475.076    -547.452
  H      204.868     471.545    -548.446
  H      204.195     473.132    -548.732
  H      203.172     471.718    -548.830

 6  7  8  9  10  11  12  13  14  15  25  28  32  33  34  35 0
 6-311+G(2d,p)
 ****
 36  37  40 0
 6-311+G(2d,p)
 ****
 1  2  3  4  5  16  17  18  19  20  21  22  23  24 0
 3-21G
 ****
 26  27  29  30  31  38  39 41  42  43  44  45  46  47  48 0
 3-21G
 ****


