%nproc=1
%NoSave
%Mem=1900MB
#P OB98/GEN NMR

erre ene a

0 1
  C       22.894       1.922      17.940
  O       23.329       1.060      16.891
  P       23.476       1.493      15.362
  C       24.783       0.560      13.289
  O       24.259       0.331      14.589
  C       25.835      -0.482      12.871
  O       26.970      -0.412      13.773
  C       25.269      -1.896      12.995
  O       24.484      -2.442      11.952
  C       26.461      -2.756      13.387
  O       27.096      -3.362      12.261
  C       27.409      -1.757      14.058
  N       29.384      -4.513      17.888
  C       29.482      -4.716      16.526
  N       30.149      -5.820      16.127
  N       28.958      -3.918      15.636
  C       28.245      -2.901      16.170
  C       28.058      -2.608      17.501
  C       28.692      -3.466      18.480
  O       28.646      -3.324      19.697
  N       27.254      -1.508      17.665
  C       26.935      -1.153      16.438
  N       27.519      -1.965      15.493
  O       23.939       2.891      15.129
  O       21.969       1.378      14.797
  H       27.809      -3.936      12.591
  H       21.875       2.071      14.113
  H       29.828      -5.147      18.529
  H       26.295      -0.318      16.179
  H       28.424      -1.843      13.655
  H       26.146      -3.576      14.044
  H       30.471      -6.534      16.761
  H       24.607      -1.899      13.871
  H       30.037      -6.088      15.148
  H       26.229      -0.258      11.877
  H       25.219       1.563      13.296
  H       23.974       0.579      12.558
  P       22.911      -2.736      12.003
  C       21.061      -2.809      10.233
  O       22.423      -3.074      10.518
  O       22.258      -1.299      12.268
  O       22.485      -3.714      13.048
  H       21.337      -1.395      12.572
  H       20.775      -3.351       9.329
  H       20.923      -1.738      10.065
  H       20.419      -3.133      11.059
  H       22.885       1.383      18.864
  H       21.908       2.277      17.724
  H       23.563       2.754      18.019

 3  4  5  6  7  8  9  10  11  12  23  26  30  31 0
 6-311+G(2d,p)
 ****
 33  35  36  37  38 0
 6-311+G(2d,p)
 ****
 1  2  13  14  15  16  17  18  19  20  21  22  24  25 0
 3-21G
 ****
 27  28  29  32  34  39  40  41  42  43  44  45  46  47  48  49 0
 3-21G
 ****


