%nproc=1
%NoSave
%Mem=1900MB
#P OB98/GEN NMR

erre ene a

0 1
  C      -58.370      25.671     100.874
  O      -57.298      24.899     100.370
  H      -58.872      25.103     101.660
  H      -59.089      25.876     100.076
  H      -58.004      26.611     101.297
  P      -56.277      25.625      99.367
  C      -55.749      23.392      98.140
  O      -55.242      24.498      98.874
  C      -54.737      22.246      98.154
  O      -54.694      21.679      99.494
  C      -55.074      21.104      97.186
  O      -53.846      20.588      96.649
  C      -55.703      20.061      98.090
  O      -55.633      18.736      97.576
  C      -54.881      20.255      99.367
  N      -55.542      19.706     100.551
  C      -55.333      18.357     100.832
  O      -54.567      17.622     100.210
  N      -56.053      17.857     101.888
  C      -56.952      18.544     102.650
  O      -57.581      18.034     103.568
  C      -57.137      19.958     102.299
  C      -56.437      20.465     101.279
  O      -55.395      26.532     100.349
  O      -56.907      26.414      98.269
  H      -55.802      27.412     100.458
  H      -55.842      18.124      98.313
  H      -55.914      16.882     102.104
  H      -57.851      20.536     102.876
  H      -56.566      21.503     100.980
  H      -53.888      19.803      99.258
  H      -56.756      20.302      98.262
  H      -55.740      21.393      96.365
  H      -53.740      22.655      97.944
  H      -55.933      23.697      97.105
  H      -56.698      23.069      98.588
  P      -53.876      20.020      95.147
  C      -52.060      18.154      95.453
  O      -52.416      19.409      94.890
  O      -53.898      21.378      94.308
  O      -55.024      19.097      94.897
  H      -53.378      22.090      94.718
  H      -51.056      17.911      95.176
  H      -52.724      17.398      95.088
  H      -52.133      18.208      96.519

 6  7  8  9  10  11  12  13  14  15  16  27  31  32  33  34  35 0
 6-311+G(2d,p)
 ****
 36  37 0
 6-311+G(2d,p)
 ****
 1  2  3  4  5  17  18  19  20  21  22  23  24  25 0
 3-21G
 ****
 26  28  29  30  38  39  40  41  42  43  44  45 0
 3-21G
 ****


