%nproc=1
%NoSave
%Mem=1900MB
#P OB98/GEN NMR

erre ene a

0 1
  C     -298.893    -379.621     463.059
  O     -298.109    -378.440     462.855
  P     -296.720    -378.577     462.076
  C     -297.495    -377.241     460.006
  O     -296.996    -378.486     460.494
  C     -297.835    -377.353     458.511
  O     -299.018    -378.199     458.360
  C     -298.199    -376.025     457.827
  O     -297.142    -375.257     457.257
  C     -299.065    -376.507     456.667
  O     -298.226    -376.925     455.567
  C     -299.794    -377.718     457.246
  N     -304.707    -377.597     455.819
  C     -303.590    -377.958     455.167
  N     -302.318    -377.957     455.606
  C     -302.260    -377.549     456.890
  C     -303.322    -377.157     457.692
  C     -304.598    -377.189     457.104
  N     -305.745    -376.814     457.774
  N     -302.877    -376.797     458.944
  C     -301.566    -376.944     458.896
  N     -301.147    -377.422     457.679
  O     -295.833    -379.698     462.505
  O     -296.019    -377.161     462.374
  H     -298.807    -377.368     454.928
  H     -295.058    -377.307     462.497
  H     -303.729    -378.283     454.127
  H     -300.892    -376.741     459.709
  H     -299.870    -378.540     456.523
  H     -299.719    -375.722     456.287
  H     -298.794    -375.392     458.500
  H     -297.008    -377.831     457.980
  H     -296.745    -376.463     460.151
  H     -306.616    -376.823     457.268
  H     -305.669    -376.456     458.717
  H     -298.359    -376.975     460.619
  P     -296.441    -374.061     458.064
  C     -294.095    -375.213     458.056
  O     -295.182    -374.716     458.803
  O     -297.357    -373.289     458.956
  O     -295.767    -373.207     456.893
  H     -295.029    -373.646     456.454
  H     -293.263    -375.417     458.740
  H     -293.769    -374.482     457.308
  H     -294.378    -376.148     457.559
  H     -299.786    -379.369     463.591
  H     -298.328    -380.330     463.627
  H     -299.150    -380.046     462.112

 3  4  5  6  7  8  9  10  11  12  22  25  29  30  31  32 0
 6-311+G(2d,p)
 ****
 33  36  37 0
 6-311+G(2d,p)
 ****
 1  2  13  14  15  16  17  18  19  20  21  23  24  26 0
 3-21G
 ****
 27  28  34  35  38  39  40  41  42  43  44  45  46  47  48 0
 3-21G
 ****


