%nproc=1
%NoSave
%Mem=1900MB
#P OB98/GEN NMR

erre ene a

0 1
  C     1465.723    -367.891    -120.346
  O     1464.558    -367.196    -120.762
  H     1466.453    -367.195    -119.927
  H     1465.433    -368.621    -119.574
  H     1466.155    -368.430    -121.199
  P     1464.777    -366.006    -121.813
  C     1462.243    -365.610    -122.200
  O     1463.471    -365.069    -121.730
  C     1461.080    -365.058    -121.386
  O     1460.961    -365.769    -120.130
  C     1461.211    -363.576    -121.009
  O     1460.873    -362.717    -122.082
  C     1460.194    -363.497    -119.872
  O     1458.862    -363.365    -120.431
  C     1460.338    -364.868    -119.192
  N     1460.445    -363.684    -114.179
  C     1459.467    -363.613    -115.111
  N     1459.509    -363.920    -116.399
  C     1460.724    -364.387    -116.759
  C     1461.836    -364.529    -115.919
  C     1461.672    -364.148    -114.573
  N     1462.676    -364.227    -113.658
  N     1462.908    -365.040    -116.599
  C     1462.462    -365.200    -117.841
  N     1461.154    -364.827    -117.976
  O     1464.624    -366.726    -123.235
  O     1466.089    -365.288    -121.699
  H     1458.247    -363.252    -119.676
  H     1465.240    -366.309    -123.868
  H     1458.502    -363.255    -114.737
  H     1463.048    -365.606    -118.663
  H     1459.369    -365.291    -118.927
  H     1460.356    -362.642    -119.216
  H     1462.211    -363.368    -120.611
  H     1460.156    -365.231    -121.956
  H     1462.258    -366.705    -122.116
  H     1462.451    -364.127    -112.662
  H     1463.589    -364.564    -113.946
  H     1462.133    -365.337    -123.258
  P     1461.078    -361.128    -121.850
  C     1459.137    -360.945    -123.550
  O     1459.700    -360.451    -122.360
  O     1462.135    -360.721    -122.969
  O     1461.545    -360.760    -120.469
  H     1462.610    -359.930    -122.696
  H     1458.236    -360.411    -123.767
  H     1458.916    -361.986    -123.435
  H     1459.831    -360.815    -124.354

 6  7  8  9  10  11  12  13  14  15  25  28  32  33  34  35 0
 6-311+G(2d,p)
 ****
 36  39  40 0
 6-311+G(2d,p)
 ****
 1  2  3  4  5  16  17  18  19  20  21  22  23  24 0
 3-21G
 ****
 26  27  29  30  31  37  38  41  42  43  44  45  46  47  48 0
 3-21G
 ****


