%nproc=1
%NoSave
%Mem=1900MB
#P OB98/GEN NMR

erre ene a

0 1
  C      637.488       2.119      84.563
  O      638.294       3.097      85.201
  H      638.126       1.272      84.292
  H      637.044       2.531      83.655
  H      636.708       1.771      85.240
  P      637.540       4.423      85.700
  C      638.585       4.120      88.063
  O      638.386       4.978      86.945
  C      638.795       4.953      89.323
  O      637.690       5.874      89.491
  C      638.836       4.136      90.607
  O      640.088       3.505      90.798
  C      638.533       5.209      91.647
  O      639.709       5.942      92.007
  C      637.541       6.115      90.908
  N      634.046       7.025      94.526
  C      635.313       7.474      94.356
  N      636.177       7.199      93.352
  C      635.603       6.373      92.451
  C      634.330       5.832      92.494
  C      633.529       6.184      93.592
  N      632.256       5.707      93.783
  N      634.117       4.999      91.414
  C      635.242       5.049      90.727
  N      636.164       5.864      91.313
  O      636.202       3.844      86.372
  O      637.236       5.423      84.639
  H      640.162       6.156      91.165
  H      635.459       3.936      85.750
  H      635.679       8.155      95.120
  H      635.442       4.492      89.807
  H      637.742       7.183      91.082
  H      638.129       4.753      92.551
  H      638.029       3.395      90.609
  H      639.716       5.546      89.205
  H      639.478       3.499      87.891
  H      637.711       3.469      88.171
  H      631.766       5.949      94.632
  H      631.899       4.999      93.162
  P      640.085       1.994      91.329
  C      641.992       1.282      89.697
  O      641.542       1.379      91.037
  O      639.139       1.218      90.281
  O      639.611       1.821      92.732
  H      638.624       0.536      90.750
  H      642.973       0.855      89.680
  H      642.021       2.258      89.259
  H      641.322       0.660      89.140

 6  7  8  9  10  11  12  13  14  15  25  28  32  33  34  35 0
 6-311+G(2d,p)
 ****
 36  37  40 0
 6-311+G(2d,p)
 ****
 1  2  3  4  5  16  17  18  19  20  21  22  23  24 0
 3-21G
 ****
 26  27  29  30  31  38  39 41  42  43  44  45  46  47  48 0
 3-21G
 ****


