%nproc=1
%NoSave
%Mem=1900MB
#P OB98/GEN NMR

erre ene a

0 1
  C      256.177    -925.623    1038.022
  O      256.199    -927.005    1038.232
  P      256.331    -928.013    1036.969
  C      254.873    -929.880    1037.998
  O      255.017    -928.928    1036.931
  C      253.399    -930.074    1038.355
  O      252.849    -928.834    1038.907
  C      252.518    -930.406    1037.156
  O      252.711    -931.737    1036.732
  C      251.130    -930.120    1037.755
  O      250.665    -931.212    1038.562
  C      251.414    -928.887    1038.634
  N      250.968    -927.637    1038.028
  C      250.076    -926.884    1038.781
  O      249.641    -927.313    1039.861
  N      249.660    -925.660    1038.306
  C      250.045    -925.275    1037.109
  N      249.676    -924.027    1036.687
  C      250.847    -926.137    1036.210
  C      251.306    -927.279    1036.728
  O      257.622    -928.767    1036.863
  O      256.123    -927.050    1035.690
  H      256.846    -927.229    1035.054
  H      250.681    -932.016    1037.989
  H      251.060    -925.803    1035.200
  H      251.900    -927.956    1036.174
  H      250.919    -928.994    1039.626
  H      250.381    -929.943    1036.976
  H      252.708    -929.710    1036.341
  H      253.334    -930.862    1039.127
  H      249.111    -923.476    1037.331
  H      255.421    -929.515    1038.865
  H      250.165    -923.532    1035.949
  H      255.324    -930.840    1037.704
  P      251.933    -932.165    1035.386
  C      253.096    -934.469    1035.236
  O      251.878    -933.761    1035.353
  O      252.981    -931.797    1034.226
  O      250.614    -931.470    1035.173
  H      252.521    -931.438    1033.446
  H      252.926    -935.506    1035.582
  H      253.856    -934.024    1035.895
  H      253.447    -934.487    1034.216
  H      256.086    -925.121    1038.962
  H      255.344    -925.370    1037.400
  H      257.085    -925.321    1037.543

 3  4  5  6  7  8  9  10  11  12  13  24  27  28  29  30  32 0
 6-311+G(2d,p)
 ****
 34  35 0
 6-311+G(2d,p)
 ****
 1  2  14  15  16  17  18  19  20  21  22  23  25  26 0
 3-21G
 ****
 31  33  36  37  38  39  40  41  42  43  44  45  46 0
 3-21G
 ****


