%nproc=1
%NoSave
%Mem=1900MB
#P OB98/GEN NMR

erre ene a

0 1
  C      196.130    -326.351     304.737
  O      195.909    -325.255     305.598
  H      196.516    -325.977     303.782
  H      195.192    -326.877     304.548
  H      196.862    -327.043     305.162
  P      195.536    -325.540     307.133
  C      193.008    -325.177     306.777
  O      194.186    -324.731     307.438
  C      191.845    -324.232     307.087
  O      190.644    -324.694     306.434
  C      191.505    -324.139     308.573
  O      192.446    -323.339     309.260
  C      190.099    -323.555     308.501
  O      190.143    -322.138     308.283
  C      189.526    -324.288     307.259
  N      188.688    -325.438     307.602
  C      187.364    -325.158     307.931
  O      186.909    -324.016     307.975
  N      186.581    -326.246     308.224
  C      187.007    -327.543     308.304
  O      186.272    -328.478     308.624
  C      188.424    -327.768     307.986
  C      189.185    -326.727     307.652
  O      196.632    -325.325     308.122
  O      195.047    -327.065     307.121
  H      189.219    -321.840     308.173
  H      195.764    -327.646     307.441
  H      185.621    -326.065     308.473
  H      188.797    -328.786     308.040
  H      190.234    -326.874     307.417
  H      188.924    -323.594     306.653
  H      189.530    -323.719     309.417
  H      191.447    -325.141     309.014
  H      192.096    -323.241     306.681
  H      192.763    -326.182     307.130
  H      193.199    -325.217     305.699
  P      193.484    -323.994     310.289
  C      191.892    -323.831     312.289
  O      193.142    -323.424     311.754
  O      194.921    -323.893     309.899
  O      193.019    -325.526     310.382
  H      193.650    -326.094     309.895
  H      191.762    -323.400     313.260
  H      191.867    -324.898     312.366
  H      191.104    -323.502     311.644

 6  7  8  9  10  11  12  13  14  15  16  26  31  32  33  34  35 0
 6-311+G(2d,p)
 ****
 36  37 0
 6-311+G(2d,p)
 ****
 1  2  3  4  5  17  18  19  20  21  22  23  24  25 0
 3-21G
 ****
 27  28  29  30  38  39  40  41  42  43  44  45 0
 3-21G
 ****


