%nproc=1
%NoSave
%Mem=1900MB
#P OB98/GEN NMR

erre ene a

0 1
  C     -442.044    -101.210     266.918
  O     -443.218    -102.001     267.115
  P     -444.584    -101.398     266.521
  C     -445.742    -100.716     268.738
  O     -445.122    -100.276     267.538
  C     -446.450     -99.572     269.466
  O     -447.661     -99.172     268.758
  C     -446.869     -99.911     270.897
  O     -446.743     -98.710     271.673
  C     -448.341    -100.253     270.756
  O     -449.025    -100.178     271.999
  C     -448.741     -99.204     269.716
  N     -453.767     -99.207     270.292
  C     -452.760     -98.952     271.208
  N     -453.160     -98.594     272.440
  N     -451.482     -99.035     270.933
  C     -451.239     -99.362     269.635
  C     -452.135     -99.624     268.633
  C     -453.552     -99.564     268.955
  O     -454.476     -99.776     268.185
  N     -451.504     -99.905     267.442
  C     -450.216     -99.866     267.757
  N     -450.004     -99.489     269.058
  O     -445.623    -102.602     266.687
  O     -444.470    -100.958     265.098
  H     -449.983    -100.297     271.815
  H     -445.742    -103.066     265.842
  H     -454.729     -99.143     270.563
  H     -449.407    -100.068     267.079
  H     -448.845     -98.194     270.154
  H     -448.459    -101.266     270.351
  H     -454.126     -98.459     272.709
  H     -446.290    -100.726     271.361
  H     -452.443     -98.352     273.129
  H     -445.777     -98.708     269.473
  H     -444.992    -101.159     269.408
  H     -446.441    -101.530     268.497
  P     -445.489     -98.587     272.672
  C     -446.744     -99.361     274.810
  O     -445.729     -99.628     273.860
  O     -445.733     -97.168     273.371
  O     -444.157     -98.638     272.001
  H     -444.880     -96.710     273.489
  H     -447.091    -100.309     275.225
  H     -447.591     -98.837     274.344
  H     -446.338     -98.739     275.606
  H     -441.202    -101.707     267.352
  H     -442.174    -100.256     267.385
  H     -441.877    -101.075     265.870

 3  4  5  6  7  8  9  10  11  12  23  26  30  31 0
 6-311+G(2d,p)
 ****
 33  35  36  37  38 0
 6-311+G(2d,p)
 ****
 1  2  13  14  15  16  17  18  19  20  21  22  24  25 0
 3-21G
 ****
 27  28  29  32  34  39  40  41  42  43  44  45  46  47  48  49 0
 3-21G
 ****


