%nproc=1
%NoSave
%Mem=1900MB
#P OB98/GEN NMR

erre ene a

0 1
  C     -155.069     -36.682     335.301
  O     -154.198     -37.794     335.418
  H     -155.798     -36.720     336.116
  H     -155.603     -36.725     334.347
  H     -154.504     -35.749     335.373
  P     -153.039     -37.908     334.316
  C     -152.965     -37.702     331.718
  O     -153.755     -37.675     332.897
  C     -153.854     -37.923     330.487
  O     -154.149     -39.347     330.374
  C     -155.209     -37.194     330.558
  O     -155.624     -36.905     329.210
  C     -156.107     -38.270     331.146
  O     -157.470     -37.932     330.995
  C     -155.588     -39.483     330.371
  N     -159.273     -43.017     330.648
  C     -159.164     -41.887     329.920
  N     -158.148     -41.001     329.889
  C     -157.155     -41.388     330.708
  C     -157.120     -42.521     331.505
  C     -158.246     -43.360     331.463
  N     -158.362     -44.512     332.210
  N     -155.928     -42.584     332.211
  C     -155.261     -41.508     331.844
  N     -155.965     -40.753     330.945
  O     -152.687     -39.471     334.315
  O     -151.833     -37.063     334.560
  H     -157.701     -37.834     330.046
  H     -151.922     -39.639     334.896
  H     -160.015     -41.656     329.274
  H     -154.278     -41.221     332.202
  H     -155.923     -39.476     329.328
  H     -155.929     -38.386     332.218
  H     -155.172     -36.268     331.135
  H     -153.295     -37.644     329.587
  H     -152.240     -38.517     331.805
  H     -152.432     -36.752     331.615
  H     -159.212     -45.048     332.132
  H     -157.614     -44.770     332.834
  P     -155.191     -35.506     328.543
  C     -155.793     -32.975     328.858
  O     -155.982     -34.318     329.279
  O     -155.938     -35.565     327.122
  O     -153.723     -35.297     328.362
  H     -155.440     -35.037     326.470
  H     -156.396     -32.325     329.457
  H     -156.078     -32.880     327.831
  H     -154.763     -32.708     328.968

 6  7  8  9  10  11  12  13  14  15  25  28  32  33  34  35 0
 6-311+G(2d,p)
 ****
 36  37  40 0
 6-311+G(2d,p)
 ****
 1  2  3  4  5  16  17  18  19  20  21  22  23  24 0
 3-21G
 ****
 26  27  29  30  31  38  39 41  42  43  44  45  46  47  48 0
 3-21G
 ****


