%nproc=1
%NoSave
%Mem=1900MB
#P OB98/GEN NMR

erre ene a

0 1
  C       53.283     150.244      -0.538
  O       51.954     150.713      -0.684
  P       51.555     152.213      -0.275
  C       51.778     153.598       1.879
  O       51.832     152.298       1.302
  C       52.364     153.570       3.288
  O       53.531     152.714       3.279
  C       52.854     154.911       3.833
  O       51.842     155.714       4.423
  C       53.816     154.440       4.916
  O       53.076     154.043       6.085
  C       54.469     153.221       4.262
  N       59.438     154.187       4.998
  C       58.442     153.864       5.855
  N       57.140     153.641       5.583
  C       56.910     153.737       4.264
  C       57.821     154.053       3.270
  C       59.145     154.286       3.682
  N       60.162     154.592       2.804
  N       57.206     154.077       2.033
  C       55.951     153.767       2.280
  N       55.724     153.544       3.610
  O       50.199     152.636      -0.721
  O       52.721     153.114      -0.894
  H       52.865     154.859       6.578
  H       52.438     154.047      -0.929
  H       58.730     153.778       6.899
  H       55.176     153.695       1.531
  H       54.660     152.411       4.976
  H       54.515     155.220       5.232
  H       53.413     155.470       3.074
  H       51.623     153.123       3.961
  H       50.727     153.905       1.933
  H       61.100     154.613       3.171
  H       59.978     154.505       1.814
  H       52.312     154.306       1.242
  P       51.986     157.308       4.262
  C       54.218     158.638       4.570
  O       53.296     157.709       5.094
  O       50.756     158.077       4.593
  O       52.452     157.470       2.740
  H       53.338     157.127       2.539
  H       54.942     158.892       5.348
  H       53.713     159.553       4.253
  H       54.753     158.199       3.723
  H       53.340     149.226      -0.864
  H       53.572     150.306       0.490
  H       53.941     150.846      -1.130

 3  4  5  6  7  8  9  10  11  12  22  25  29  30  31  32 0
 6-311+G(2d,p)
 ****
 33  36  37 0
 6-311+G(2d,p)
 ****
 1  2  13  14  15  16  17  18  19  20  21  23  24  26 0
 3-21G
 ****
 27  28  34  35  38  39  40  41  42  43  44  45  46  47  48 0
 3-21G
 ****


