%nproc=1
%NoSave
%Mem=1900MB
#P OB98/GEN NMR

erre ene a

0 1
  C     -291.363      61.441    1009.387
  O     -290.366      62.146    1010.103
  H     -291.743      62.079    1008.590
  H     -292.193      61.197    1010.065
  H     -290.956      60.527    1008.948
  P     -289.455      61.303    1011.119
  C     -290.371      62.313    1013.334
  O     -290.287      61.165    1012.488
  C     -290.913      61.921    1014.707
  O     -290.131      60.794    1015.213
  C     -290.832      63.047    1015.746
  O     -292.000      63.004    1016.571
  C     -289.601      62.683    1016.576
  O     -289.653      63.230    1017.900
  C     -289.655      61.163    1016.521
  N     -286.836      58.803    1019.989
  C     -288.171      59.181    1020.016
  N     -288.855      58.889    1021.146
  N     -288.781      59.777    1019.029
  C     -287.970      59.978    1017.959
  C     -286.656      59.661    1017.793
  C     -285.983      59.019    1018.912
  O     -284.795      58.692    1018.952
  N     -286.180      60.068    1016.565
  C     -287.233      60.613    1015.974
  N     -288.355      60.579    1016.778
  O     -288.284      62.326    1011.490
  O     -288.912      60.022    1010.577
  H     -289.764      64.200    1017.804
  H     -287.429      61.977    1011.161
  H     -286.419      58.347    1020.789
  H     -287.232      61.046    1014.991
  H     -290.337      60.738    1017.268
  H     -288.700      63.063    1016.081
  H     -288.480      58.374    1021.927
  H     -290.740      64.041    1015.300
  H     -289.846      59.111    1021.176
  H     -291.945      61.568    1014.598
  H     -291.047      63.042    1012.867
  H     -289.376      62.757    1013.435
  P     -293.325      63.697    1015.994
  C     -293.011      66.014    1017.110
  O     -293.073      65.280    1015.896
  O     -294.374      63.555    1017.198
  O     -293.850      63.046    1014.735
  H     -295.050      62.876    1016.972
  H     -292.840      67.048    1016.893
  H     -292.211      65.639    1017.713
  H     -293.936      65.909    1017.638

 6  7  8  9  10  11  12  13  14  15  26  29  33  34 0
 6-311+G(2d,p)
 ****
 36  38  39  40  41 0
 6-311+G(2d,p)
 ****
 1  2  3  4  5  16  17  18  19  20  21  22  23  24  25 0
 3-21G
 ****
 27  28  30  31  32  35  37  42  43  44  45  46  47 0
 3-21G
 ****
 48  49 0
 3-21G
 ****


