%nproc=1
%NoSave
%Mem=1900MB
#P OB98/GEN NMR

erre ene a

0 1
  C      748.180     279.874     577.451
  O      749.460     279.305     577.609
  P      749.748     277.780     577.264
  C      750.037     275.625     578.667
  O      749.474     276.932     578.605
  C      750.036     275.115     580.123
  O      750.955     275.940     580.904
  C      748.637     275.200     580.786
  O      748.213     273.958     581.368
  C      748.790     276.352     581.741
  O      747.858     276.360     582.805
  C      750.273     276.248     582.135
  N      750.791     277.466     582.765
  C      750.328     277.765     584.050
  O      749.552     277.052     584.685
  N      750.764     278.944     584.581
  C      751.504     279.895     583.935
  O      751.780     280.968     584.442
  C      751.917     279.558     582.570
  C      751.568     278.353     582.056
  O      751.071     277.490     576.634
  O      748.485     277.375     576.349
  H      747.922     277.218     583.274
  H      747.624     277.480     576.779
  H      750.450     279.172     585.523
  H      752.489     280.291     582.017
  H      751.858     278.087     581.043
  H      750.452     275.411     582.820
  H      748.635     277.295     581.184
  H      747.876     275.430     580.042
  H      750.412     274.078     580.101
  H      751.071     275.662     578.295
  H      749.485     274.946     578.016
  P      746.680     273.475     581.449
  C      744.881     273.398     583.359
  O      746.050     274.000     582.834
  O      746.452     272.035     581.170
  O      745.932     274.391     580.366
  H      745.165     273.925     580.002
  H      744.338     274.148     583.963
  H      745.190     272.556     584.000
  H      744.243     273.024     582.549
  H      748.210     280.904     577.739
  H      747.479     279.351     578.068
  H      747.880     279.798     576.427

 3  4  5  6  7  8  9  10  11  12  13  23  28  29  30  31  32 0
 6-311+G(2d,p)
 ****
 33  34 0
 6-311+G(2d,p)
 ****
 1  2  14  15  16  17  18  19  20  21  22  24  25  26  27 0
 3-21G
 ****
 35  36  37  38  39  40  41  42  43  44  45 0
 3-21G
 ****


