%nproc=1
%NoSave
%Mem=1900MB
#P OB98/GEN NMR

erre ene a

0 1
  C      568.179     554.794     316.192
  O      568.786     554.584     317.450
  H      567.140     555.110     316.353
  H      568.176     553.871     315.607
  H      568.700     555.580     315.646
  P      570.294     554.045     317.496
  C      569.513     551.585     317.424
  O      570.292     552.604     316.794
  C      569.869     550.212     316.839
  O      568.938     549.940     315.759
  C      571.298     550.163     316.265
  O      572.075     549.086     316.783
  C      571.071     550.216     314.758
  O      572.104     549.630     313.985
  C      569.702     549.564     314.588
  N      568.991     549.968     313.370
  C      569.198     549.191     312.228
  O      569.906     548.186     312.174
  N      568.536     549.616     311.106
  C      567.724     550.704     311.008
  O      567.153     551.033     309.973
  C      567.561     551.493     312.241
  C      568.198     551.094     313.351
  O      570.958     554.089     318.839
  O      571.070     554.959     316.429
  H      572.856     550.247     313.973
  H      571.583     555.642     316.900
  H      568.670     549.060     310.277
  H      566.938     552.374     312.200
  H      568.099     551.645     314.284
  H      569.785     548.474     314.582
  H      571.008     551.271     314.456
  H      571.870     551.048     316.567
  H      569.715     549.450     317.606
  H      568.459     551.815     317.246
  H      569.707     551.592     318.506
  P      573.118     549.208     317.981
  C      575.565     549.605     317.113
  O      574.312     550.155     317.508
  O      573.497     547.928     318.649
  O      572.325     550.105     319.069
  H      572.624     549.804     319.955
  H      576.229     550.396     316.833
  H      575.420     548.949     316.280
  H      575.987     549.057     317.929

 6  7  8  9  10  11  12  13  14  15  16  26  31  32  33  34  35 0
 6-311+G(2d,p)
 ****
 36  37 0
 6-311+G(2d,p)
 ****
 1  2  3  4  5  17  18  19  20  21  22  23  24  25 0
 3-21G
 ****
 27  28  29  30  38  39  40  41  42  43  44  45 0
 3-21G
 ****


