%nproc=1
%NoSave
%Mem=1900MB
#P OB98/GEN NMR

erre ene a

0 1
  C      809.613      59.426     548.346
  O      808.555      60.288     548.718
  H      809.958      59.706     547.349
  H      809.272      58.386     548.325
  H      810.446      59.529     549.051
  P      807.880      60.021     550.151
  C      808.971      62.091     551.241
  O      808.912      60.669     551.202
  C      809.621      62.572     552.538
  O      811.025      62.204     552.513
  C      809.536      64.089     552.741
  O      809.320      64.369     554.119
  C      810.930      64.568     552.334
  O      811.267      65.807     552.954
  C      811.803      63.392     552.749
  N      816.408      65.518     552.188
  C      815.444      65.668     553.129
  N      814.254      65.051     553.202
  C      814.119      64.153     552.216
  C      815.004      63.889     551.184
  C      816.205      64.625     551.191
  N      817.174      64.490     550.220
  N      814.479      62.932     550.334
  C      813.302      62.619     550.839
  N      813.028      63.345     551.973
  O      807.488      58.607     550.427
  O      806.682      61.081     550.150
  H      810.914      66.539     552.401
  H      806.971      61.950     549.812
  H      815.671      66.398     553.910
  H      812.609      61.896     550.427
  H      812.083      63.425     553.806
  H      810.962      64.719     551.253
  H      808.758      64.553     552.136
  H      809.165      62.034     553.382
  H      807.962      62.511     551.158
  H      818.017      65.037     550.313
  H      817.048      63.810     549.484
  H      809.555      62.427     550.378
  P      807.934      65.059     554.550
  C      806.954      62.838     555.423
  O      806.781      63.934     554.528
  O      807.596      66.334     553.854
  O      808.146      65.301     556.121
  H      807.723      66.152     556.363
  H      806.132      62.160     555.320
  H      806.993      63.201     556.429
  H      807.867      62.330     555.192

 6  7  8  9  10  11  12  13  14  15  25  28  32  33  34  35 0
 6-311+G(2d,p)
 ****
 36  39  40 0
 6-311+G(2d,p)
 ****
 1  2  3  4  5  16  17  18  19  20  21  22  23  24 0
 3-21G
 ****
 26  27  29  30  31  37  38  41  42  43  44  45  46  47 0
 3-21G
 ****
 48 0
 3-21G
 ****


