%nproc=1
%NoSave
%Mem=1900MB
#P OB98/GEN NMR

erre ene a

0 1
  C      471.202     227.184     -40.865
  O      471.693     228.355     -41.486
  H      470.208     227.390     -40.464
  H      471.863     226.896     -40.042
  H      471.130     226.370     -41.589
  P      473.116     228.246     -42.226
  C      472.767     229.641     -44.384
  O      473.294     229.605     -43.065
  C      473.055     230.990     -45.051
  O      472.282     232.024     -44.359
  C      474.529     231.413     -45.014
  O      474.820     232.123     -46.217
  C      474.567     232.406     -43.856
  O      475.688     233.291     -43.926
  C      473.210     233.079     -44.038
  N      473.028     237.663     -41.954
  C      473.462     237.261     -43.203
  N      473.922     238.225     -44.029
  N      473.451     236.016     -43.611
  C      472.932     235.163     -42.696
  C      472.477     235.430     -41.423
  C      472.525     236.807     -40.981
  O      472.171     237.222     -39.879
  N      472.060     234.285     -40.798
  C      472.264     233.322     -41.684
  N      472.793     233.807     -42.853
  O      472.838     227.139     -43.350
  O      474.264     227.882     -41.349
  H      475.622     233.911     -43.172
  H      473.089     226.256     -43.024
  H      473.071     238.632     -41.686
  H      472.052     232.274     -41.532
  H      473.209     233.803     -44.864
  H      474.614     231.869     -42.899
  H      473.920     239.210     -43.805
  H      475.238     230.587     -44.888
  H      474.201     237.956     -44.963
  H      472.684     230.959     -46.079
  H      471.684     229.483     -44.344
  H      473.221     228.834     -44.974
  P      476.305     232.029     -46.815
  C      475.998     230.724     -49.042
  O      476.202     231.985     -48.410
  O      476.741     230.537     -46.439
  O      477.254     233.041     -46.254
  H      477.713     230.487     -46.338
  H      475.951     230.860     -50.102
  H      475.080     230.296     -48.696
  H      476.809     230.069     -48.802

 6  7  8  9  10  11  12  13  14  15  26  29  33  34 0
 6-311+G(2d,p)
 ****
 36  38  39  40  41 0
 6-311+G(2d,p)
 ****
 1  2  3  4  5  16  17  18  19  20  21  22  23  24  25 0
 3-21G
 ****
 27  28  30  31  32  35  37  42  43  44  45  46  47 0
 3-21G
 ****
 48  49 0
 3-21G
 ****


