%nproc=1
%NoSave
%Mem=1900MB
#P OB98/GEN NMR

erre ene a

0 1
  C     -229.464      -1.700     -91.913
  O     -229.166      -2.715     -90.950
  P     -227.979      -2.408     -89.917
  C     -229.451      -1.277     -88.100
  O     -228.394      -1.131     -89.042
  C     -229.268      -0.279     -86.953
  O     -229.320       1.086     -87.421
  C     -230.355      -0.383     -85.889
  O     -230.158      -1.521     -85.069
  C     -230.176       0.952     -85.171
  O     -229.068       0.893     -84.258
  C     -229.835       1.899     -86.336
  N     -232.229       6.419     -86.112
  C     -231.102       5.960     -85.521
  N     -230.532       4.744     -85.629
  C     -231.239       3.961     -86.460
  C     -232.401       4.288     -87.139
  C     -232.905       5.585     -86.935
  N     -234.059       6.043     -87.529
  N     -232.841       3.222     -87.897
  C     -231.970       2.259     -87.662
  N     -230.979       2.661     -86.809
  O     -226.805      -1.858     -90.858
  O     -227.543      -3.600     -89.131
  H     -229.245       0.161     -83.631
  H     -226.093      -2.520     -90.924
  H     -230.591       6.667     -84.871
  H     -232.017       1.264     -88.083
  H     -229.055       2.619     -86.069
  H     -231.058       1.250     -84.597
  H     -231.347      -0.427     -86.358
  H     -228.285      -0.456     -86.500
  H     -229.468      -2.294     -87.705
  H     -234.393       6.960     -87.270
  H     -234.620       5.402     -88.073
  H     -230.404      -1.117     -88.611
  P     -231.449      -2.178     -84.382
  C     -231.181      -4.156     -86.001
  O     -232.042      -3.136     -85.529
  O     -232.474      -0.954     -84.389
  O     -231.203      -2.825     -83.064
  H     -232.482      -0.490     -85.243
  H     -231.717      -4.750     -86.748
  H     -230.879      -4.808     -85.179
  H     -230.300      -3.711     -86.472
  H     -230.269      -2.026     -92.538
  H     -228.599      -1.514     -92.514
  H     -229.747      -0.801     -91.407

 3  4  5  6  7  8  9  10  11  12  22  25  29  30  31  32 0
 6-311+G(2d,p)
 ****
 33  36  37 0
 6-311+G(2d,p)
 ****
 1  2  13  14  15  16  17  18  19  20  21  23  24  26 0
 3-21G
 ****
 27  28  34  35  38  39  40  41  42  43  44  45  46  47  48 0
 3-21G
 ****


