%nproc=1
%NoSave
%Mem=1900MB
#P OB98/GEN NMR

erre ene a

0 1
  C     -110.305      10.332     -43.247
  O     -109.452      11.460     -43.180
  P     -109.531      12.452     -41.927
  C     -111.549      13.751     -42.935
  O     -111.036      12.999     -41.856
  C     -112.801      14.533     -42.519
  O     -113.853      13.575     -42.245
  C     -112.648      15.359     -41.245
  O     -113.695      16.331     -41.205
  C     -112.880      14.319     -40.171
  O     -113.236      14.903     -38.921
  C     -113.961      13.411     -40.811
  N     -113.768      11.996     -40.442
  C     -114.662      11.459     -39.519
  O     -115.624      12.085     -39.077
  N     -114.364      10.206     -39.058
  C     -113.256       9.485     -39.393
  O     -112.847       8.522     -38.754
  C     -112.487       9.998     -40.538
  C     -112.758      11.227     -40.988
  O     -108.687      13.718     -42.422
  O     -109.000      11.896     -40.650
  H     -113.728      14.216     -38.415
  H     -107.772      13.664     -42.092
  H     -114.930       9.875     -38.284
  H     -111.690       9.384     -40.934
  H     -112.172      11.653     -41.798
  H     -114.969      13.707     -40.497
  H     -111.954      13.750     -40.018
  H     -111.675      15.845     -41.140
  H     -113.129      15.166     -43.353
  H     -111.773      13.080     -43.769
  H     -110.794      14.457     -43.299
  P     -113.352      17.779     -40.605
  C     -114.345      17.221     -38.303
  O     -113.182      17.581     -39.022
  O     -114.255      18.890     -41.022
  O     -111.843      18.023     -41.092
  H     -111.633      18.974     -41.047
  H     -114.051      16.636     -37.428
  H     -115.027      16.624     -38.916
  H     -114.856      18.127     -37.968
  H     -110.110       9.791     -44.149
  H     -111.325      10.655     -43.238
  H     -110.124       9.698     -42.404

 3  4  5  6  7  8  9  10  11  12  13  23  28  29  30  31  32 0
 6-311+G(2d,p)
 ****
 33  34 0
 6-311+G(2d,p)
 ****
 1  2  14  15  16  17  18  19  20  21  22  24  25  26  27 0
 3-21G
 ****
 35  36  37  38  39  40  41  42  43  44  45 0
 3-21G
 ****


