%nproc=1
%NoSave
%Mem=1900MB
#P OB98/GEN NMR

erre ene a

0 1
  C      -34.633      41.835     -10.256
  O      -34.452      41.405     -11.590
  H      -33.772      42.443      -9.964
  H      -34.706      40.982      -9.576
  H      -35.535      42.449     -10.179
  P      -35.453      40.289     -12.166
  C      -34.081      38.126     -11.843
  O      -35.128      38.951     -11.337
  C      -33.807      36.951     -10.901
  O      -33.576      37.431      -9.562
  C      -34.970      35.979     -10.780
  O      -35.216      35.224     -11.947
  C      -34.665      35.264      -9.472
  O      -33.788      34.153      -9.625
  C      -33.961      36.376      -8.657
  N      -34.798      36.870      -7.570
  C      -34.304      36.668      -6.286
  O      -33.243      36.091      -6.049
  N      -35.096      37.115      -5.265
  C      -36.328      37.684      -5.402
  O      -37.009      38.026      -4.442
  C      -36.809      37.848      -6.782
  C      -36.034      37.440      -7.790
  O      -35.432      40.100     -13.653
  O      -36.881      40.730     -11.595
  H      -33.756      33.692      -8.764
  H      -37.613      40.286     -12.087
  H      -34.750      36.986      -4.328
  H      -37.784      38.294      -6.928
  H      -36.368      37.549      -8.819
  H      -33.032      35.992      -8.216
  H      -35.575      34.890      -8.999
  H      -35.882      36.562     -10.604
  H      -32.899      36.441     -11.241
  H      -33.180      38.742     -11.920
  H      -34.348      37.763     -12.840
  P      -36.668      34.712     -12.371
  C      -36.611      32.558     -10.920
  O      -37.248      33.804     -11.178
  O      -36.829      34.234     -13.777
  O      -37.537      36.064     -12.219
  H      -38.226      36.048     -12.911
  H      -37.102      32.068     -10.105
  H      -35.585      32.727     -10.668
  H      -36.667      31.941     -11.793

 6  7  8  9  10  11  12  13  14  15  16  26  31  32  33  34  35 0
 6-311+G(2d,p)
 ****
 36  37 0
 6-311+G(2d,p)
 ****
 1  2  3  4  5  17  18  19  20  21  22  23  24  25 0
 3-21G
 ****
 27  28  29  30  38  39  40  41  42  43  44  45 0
 3-21G
 ****


