%nproc=1
%NoSave
%Mem=1900MB
#P OB98/GEN NMR

erre ene a

0 1
  C      570.522    -444.247       3.124
  O      570.010    -442.971       2.737
  P      569.109    -442.140       3.773
  C      566.826    -442.714       2.729
  O      567.662    -442.838       3.871
  C      565.433    -443.312       2.957
  O      564.506    -442.874       1.923
  C      565.401    -444.848       2.978
  O      564.406    -445.236       3.938
  C      564.934    -445.181       1.572
  O      564.424    -446.503       1.467
  C      563.919    -444.056       1.340
  N      563.604    -443.864      -0.068
  C      562.601    -444.670      -0.616
  O      562.095    -445.569       0.063
  N      562.224    -444.452      -1.915
  C      562.896    -443.621      -2.643
  N      562.477    -443.417      -3.923
  C      564.075    -442.878      -2.152
  C      564.350    -443.033      -0.861
  O      569.079    -440.666       3.557
  O      569.771    -442.503       5.186
  H      563.705    -446.617       2.123
  H      569.710    -441.722       5.772
  H      564.653    -442.261      -2.819
  H      565.193    -442.532      -0.403
  H      562.980    -444.255       1.885
  H      565.778    -445.088       0.875
  H      566.356    -445.302       3.247
  H      565.059    -442.929       3.915
  H      561.685    -443.949      -4.260
  H      567.302    -443.224       1.883
  H      562.921    -442.740      -4.545
  H      566.769    -441.655       2.447
  P      564.882    -445.716       5.394
  C      565.839    -448.048       4.754
  O      566.108    -446.740       5.206
  O      563.691    -446.704       5.824
  O      565.048    -444.648       6.424
  H      563.655    -446.749       6.792
  H      566.774    -448.505       4.412
  H      565.121    -448.052       3.929
  H      565.434    -448.649       5.585
  H      571.096    -444.659       2.321
  H      569.709    -444.903       3.354
  H      571.145    -444.135       3.987

 3  4  5  6  7  8  9  10  11  12  13  23  27  28  29  30  32 0
 6-311+G(2d,p)
 ****
 34  35 0
 6-311+G(2d,p)
 ****
 1  2  14  15  16  17  18  19  20  21  22  24  25  26 0
 3-21G
 ****
 31  33  36  37  38  39  40  41  42  43  44  45  46 0
 3-21G
 ****


