%nproc=1
%NoSave
%Mem=1900MB
#P OB98/GEN NMR

erre ene a

0 1
  C     2195.570     -26.064    -159.355
  O     2196.793     -25.786    -158.710
  H     2195.532     -27.133    -159.549
  H     2195.524     -25.538    -160.318
  H     2194.739     -25.778    -158.734
  P     2197.118     -24.248    -158.384
  C     2196.183     -24.338    -155.994
  O     2195.996     -23.825    -157.306
  C     2195.118     -23.751    -155.044
  O     2195.160     -22.295    -155.151
  C     2193.689     -24.173    -155.354
  O     2192.949     -24.314    -154.111
  C     2193.105     -23.027    -156.113
  O     2191.698     -22.981    -156.073
  C     2193.847     -21.864    -155.465
  N     2191.545     -17.416    -156.494
  C     2191.401     -18.302    -155.466
  N     2192.076     -19.434    -155.259
  C     2193.011     -19.618    -156.217
  C     2193.271     -18.827    -157.307
  C     2192.470     -17.659    -157.468
  N     2192.560     -16.796    -158.511
  N     2194.284     -19.375    -158.116
  C     2194.610     -20.499    -157.467
  N     2193.859     -20.689    -156.345
  O     2197.209     -23.340    -159.569
  O     2198.439     -24.352    -157.491
  H     2191.437     -22.742    -155.156
  H     2198.353     -25.036    -156.818
  H     2190.658     -18.033    -154.730
  H     2195.389     -21.182    -157.805
  H     2193.333     -21.532    -154.523
  H     2193.398     -23.123    -157.189
  H     2193.642     -25.139    -155.910
  H     2195.406     -23.996    -153.998
  H     2197.159     -24.136    -155.610
  H     2191.963     -15.989    -158.518
  H     2193.265     -16.965    -159.236
  H     2196.043     -25.448    -156.024
  P     2192.134     -25.688    -153.843
  C     2193.752     -26.814    -152.164
  O     2193.194     -26.877    -153.488
  O     2191.141     -26.074    -154.878
  O     2191.421     -25.426    -152.406
  H     2190.509     -25.716    -152.479
  H     2194.431     -27.629    -152.024
  H     2192.965     -26.878    -151.442
  H     2194.275     -25.889    -152.041

 6  7  8  9  10  11  12  13  14  15  25  28  32  33  34  35 0
 6-311+G(2d,p)
 ****
 36  39  40 0
 6-311+G(2d,p)
 ****
 1  2  3  4  5  16  17  18  19  20  21  22  23  24 0
 3-21G
 ****
 26  27  29  30  31  37  38  41  42  43  44  45  46  47 0
 3-21G
 ****
 48 0
 3-21G
 ****


