%nproc=1
%NoSave
%Mem=1900MB
#P OB98/GEN NMR

erre ene a

0 1
  C      182.123    -260.515      42.667
  O      183.347    -260.819      42.025
  H      181.862    -261.339      43.334
  H      181.335    -260.404      41.918
  H      182.210    -259.599      43.256
  P      184.081    -259.615      41.260
  C      185.706    -259.110      43.218
  O      184.653    -258.634      42.396
  C      186.336    -257.958      43.992
  O      187.229    -258.462      45.010
  C      187.159    -257.002      43.138
  O      186.339    -256.028      42.500
  C      188.040    -256.359      44.197
  O      187.280    -255.374      44.926
  C      188.361    -257.554      45.106
  N      193.430    -257.373      44.942
  C      192.520    -256.400      45.312
  N      193.033    -255.207      45.685
  N      191.225    -256.577      45.312
  C      190.853    -257.810      44.898
  C      191.657    -258.858      44.500
  C      193.089    -258.652      44.521
  O      193.939    -259.487      44.212
  N      190.920    -259.954      44.145
  C      189.671    -259.566      44.303
  N      189.574    -258.275      44.756
  O      182.855    -258.797      40.631
  O      185.054    -260.031      40.208
  H      186.912    -254.751      44.271
  H      182.789    -259.010      39.681
  H      194.416    -257.184      44.952
  H      188.802    -260.186      44.113
  H      188.461    -257.260      46.156
  H      188.900    -255.841      43.773
  H      194.020    -254.996      45.686
  H      187.786    -257.538      42.415
  H      192.385    -254.482      45.961
  H      185.529    -257.418      44.507
  H      186.467    -259.585      42.588
  H      185.304    -259.854      43.918
  P      187.053    -254.875      41.646
  C      186.428    -255.901      39.345
  O      187.471    -255.524      40.237
  O      188.451    -254.695      42.404
  O      186.306    -253.585      41.566
  H      188.479    -253.824      42.852
  H      186.853    -256.315      38.455
  H      185.844    -255.040      39.095
  H      185.803    -256.631      39.815

 6  7  8  9  10  11  12  13  14  15  26  29  33  34 0
 6-311+G(2d,p)
 ****
 36  38  39  40  41 0
 6-311+G(2d,p)
 ****
 1  2  3  4  5  16  17  18  19  20  21  22  23  24  25 0
 3-21G
 ****
 27  28  30  31  32  35  37  42  43  44  45  46  47 0
 3-21G
 ****
 48  49 0
 3-21G
 ****


