%nproc=1
%NoSave
%Mem=1900MB
#P OB98/GEN NMR

erre ene a

0 1
  C     -206.713    -593.566     600.048
  O     -207.006    -594.791     599.413
  H     -207.649    -593.026     600.214
  H     -206.058    -592.952     599.421
  H     -206.236    -593.745     601.017
  P     -205.787    -595.726     598.950
  C     -205.206    -598.207     599.386
  O     -206.233    -597.239     599.237
  C     -205.797    -599.582     599.738
  O     -206.199    -599.570     601.142
  C     -207.039    -599.954     598.912
  O     -207.060    -601.384     598.794
  C     -208.159    -599.471     599.816
  O     -209.401    -599.995     599.418
  C     -207.609    -599.889     601.182
  N     -208.289    -599.222     602.282
  C     -209.563    -599.703     602.606
  O     -210.059    -600.625     601.961
  N     -210.256    -599.102     603.625
  C     -209.751    -598.071     604.225
  N     -210.495    -597.509     605.216
  C     -208.429    -597.492     603.875
  C     -207.758    -598.117     602.910
  O     -204.446    -595.356     599.491
  O     -205.814    -595.636     597.352
  H     -210.087    -599.829     600.103
  H     -205.089    -595.065     597.040
  H     -208.064    -596.619     604.398
  H     -206.788    -597.767     602.586
  H     -207.698    -600.970     601.321
  H     -208.249    -598.381     599.762
  H     -207.041    -599.495     597.920
  H     -205.009    -600.339     599.641
  H     -211.394    -597.929     605.418
  H     -204.547    -597.867     600.189
  H     -210.218    -596.689     605.744
  H     -204.620    -598.288     598.466
  P     -206.683    -602.157     597.439
  C     -205.969    -604.536     596.734
  O     -206.580    -603.725     597.737
  O     -205.491    -601.590     596.736
  O     -207.988    -602.034     596.522
  H     -207.715    -602.024     595.581
  H     -205.963    -605.557     597.055
  H     -204.964    -604.207     596.573
  H     -206.522    -604.452     595.822

 6  7  8  9  10  11  12  13  14  15  16  26  30  31  32  33  35 0
 6-311+G(2d,p)
 ****
 37  38 0
 6-311+G(2d,p)
 ****
 1  2  3  4  5  17  18  19  20  21  22  23  24  25 0
 3-21G
 ****
 27  28  29  34  36  39  40  41  42  43  44  45  46 0
 3-21G
 ****


