%nproc=1
%NoSave
%Mem=1900MB
#P OB98/GEN NMR

erre ene a

0 1
  C      189.925    -399.989     -26.434
  O      189.474    -398.849     -25.717
  P      189.422    -398.969     -24.113
  C      189.846    -396.439     -23.595
  O      188.944    -397.536     -23.572
  C      189.170    -395.208     -22.996
  O      188.531    -394.432     -24.029
  C      188.093    -395.525     -21.967
  O      188.674    -395.791     -20.703
  C      187.252    -394.249     -22.002
  O      187.860    -393.214     -21.209
  C      187.285    -393.886     -23.497
  N      182.286    -393.546     -24.178
  C      183.091    -393.002     -23.193
  N      182.470    -392.215     -22.280
  N      184.377    -393.204     -23.105
  C      184.857    -394.025     -24.074
  C      184.159    -394.633     -25.094
  C      182.744    -394.362     -25.203
  O      182.010    -394.737     -26.117
  N      184.988    -395.414     -25.869
  C      186.175    -395.238     -25.336
  N      186.158    -394.391     -24.261
  O      190.965    -399.046     -23.705
  O      188.625    -400.125     -23.594
  H      188.764    -393.037     -21.539
  H      191.237    -399.973     -23.548
  H      181.301    -393.341     -24.199
  H      187.094    -395.692     -25.706
  H      187.319    -392.799     -23.655
  H      186.247    -394.403     -21.605
  H      181.477    -392.033     -22.271
  H      187.485    -396.375     -22.299
  H      183.044    -391.805     -21.550
  H      189.958    -394.578     -22.546
  H      190.128    -396.227     -24.630
  H      190.746    -396.706     -23.030
  P      187.967    -396.903     -19.784
  C      189.960    -398.154     -18.664
  O      188.939    -397.172     -18.542
  O      188.093    -398.241     -20.665
  O      186.546    -396.613     -19.435
  H      187.298    -398.790     -20.539
  H      190.799    -397.870     -18.025
  H      190.304    -398.249     -19.698
  H      189.560    -399.118     -18.329
  H      189.912    -399.779     -27.483
  H      189.280    -400.818     -26.228
  H      190.923    -400.229     -26.131

 3  4  5  6  7  8  9  10  11  12  23  26  30  31 0
 6-311+G(2d,p)
 ****
 33  35  36  37  38 0
 6-311+G(2d,p)
 ****
 1  2  13  14  15  16  17  18  19  20  21  22  24  25 0
 3-21G
 ****
 27  28  29  32  34  39  40  41  42  43  44  45  46  47  48  49 0
 3-21G
 ****


