%nproc=1
%NoSave
%Mem=1900MB
#P OB98/GEN NMR

erre ene a

0 1
  C     -271.137      50.306      67.310
  O     -272.311      51.077      67.593
  P     -272.416      52.075      68.844
  C     -272.655      54.246      67.468
  O     -271.875      53.520      68.417
  C     -273.637      55.199      68.155
  O     -272.937      56.127      69.006
  C     -274.458      56.063      67.205
  O     -275.495      55.315      66.600
  C     -274.933      57.165      68.148
  O     -276.088      56.747      68.894
  C     -273.713      57.338      69.076
  N     -272.912      58.507      68.734
  C     -273.425      59.751      69.123
  O     -274.525      59.830      69.668
  N     -272.683      60.879      68.857
  C     -271.570      60.779      68.196
  N     -270.875      61.928      67.969
  C     -271.039      59.499      67.692
  C     -271.754      58.417      67.995
  O     -271.804      51.544      70.099
  O     -273.990      52.316      69.052
  H     -275.808      55.987      69.437
  H     -274.168      52.473      70.000
  H     -270.125      59.461      67.121
  H     -271.433      57.432      67.673
  H     -274.036      57.429      70.121
  H     -275.207      58.083      67.616
  H     -273.804      56.499      66.439
  H     -274.300      54.597      68.792
  H     -271.262      62.790      68.335
  H     -273.214      53.524      66.861
  H     -269.998      61.959      67.468
  H     -271.978      54.805      66.812
  P     -275.610      55.258      65.002
  C     -275.036      52.836      64.374
  O     -274.559      54.165      64.479
  O     -275.552      56.578      64.304
  O     -277.018      54.538      64.748
  H     -277.403      54.882      63.919
  H     -274.409      52.294      63.662
  H     -276.072      52.815      64.023
  H     -274.967      52.348      65.349
  H     -271.300      49.717      66.431
  H     -270.926      49.661      68.137
  H     -270.308      50.964      67.150

 3  4  5  6  7  8  9  10  11  12  13  23  27  28  29  30  32 0
 6-311+G(2d,p)
 ****
 34  35 0
 6-311+G(2d,p)
 ****
 1  2  14  15  16  17  18  19  20  21  22  24  25  26 0
 3-21G
 ****
 31  33  36  37  38  39  40  41  42  43  44  45  46 0
 3-21G
 ****


