%nproc=1
%NoSave
%Mem=1900MB
#P OB98/GEN NMR

erre ene a

0 1
  C      141.321    -180.498     457.216
  O      142.418    -181.225     457.728
  H      140.759    -181.143     456.533
  H      141.665    -179.616     456.666
  H      140.659    -180.189     458.033
  P      143.434    -180.411     458.674
  C      145.142    -179.935     456.763
  O      144.177    -179.407     457.663
  C      145.784    -178.797     455.971
  O      146.873    -179.284     455.162
  C      144.831    -178.095     455.001
  O      143.973    -177.177     455.649
  C      145.835    -177.398     454.097
  O      146.368    -176.243     454.772
  C      146.912    -178.496     453.935
  N      146.694    -179.346     452.766
  C      147.338    -178.957     451.586
  O      148.028    -177.941     451.547
  N      147.146    -179.716     450.450
  C      146.397    -180.769     450.493
  N      146.232    -181.477     449.334
  C      145.722    -181.224     451.718
  C      145.905    -180.475     452.807
  O      144.576    -181.478     459.012
  O      142.827    -179.758     459.874
  H      146.959    -175.796     454.137
  H      145.315    -181.038     459.494
  H      145.092    -182.106     451.708
  H      145.438    -180.746     453.748
  H      147.912    -178.052     453.871
  H      145.390    -177.049     453.161
  H      144.265    -178.823     454.402
  H      146.210    -178.081     456.694
  H      146.656    -181.109     448.495
  H      144.641    -180.631     456.082
  H      145.530    -182.195     449.228
  H      145.921    -180.475     457.315
  P      142.535    -176.904     454.970
  C      143.118    -174.419     454.459
  O      142.729    -175.687     453.932
  O      141.698    -176.244     456.164
  O      141.860    -178.119     454.404
  H      140.765    -176.556     456.149
  H      143.208    -173.713     453.660
  H      144.060    -174.514     454.958
  H      142.378    -174.079     455.154

 6  7  8  9  10  11  12  13  14  15  16  26  30  31  32  33  35 0
 6-311+G(2d,p)
 ****
 37  38 0
 6-311+G(2d,p)
 ****
 1  2  3  4  5  17  18  19  20  21  22  23  24  25 0
 3-21G
 ****
 27  28  29  34  36  39  40  41  42  43  44  45  46 0
 3-21G
 ****


