%nproc=1
%NoSave
%Mem=1900MB
#P OB98/GEN NMR

erre ene a

0 1
  C      393.294     278.235     313.021
  O      394.471     279.017     312.989
  H      392.624     278.531     312.206
  H      393.563     277.184     312.888
  H      392.785     278.355     313.981
  P      394.288     280.606     313.132
  C      394.207     282.257     311.120
  O      393.677     281.084     311.725
  C      393.681     282.370     309.692
  O      394.173     281.267     308.895
  C      392.163     282.308     309.591
  O      391.550     283.561     309.858
  C      391.991     281.907     308.135
  O      392.212     283.050     307.288
  C      393.122     280.885     307.960
  N      393.948     275.968     306.811
  C      394.559     277.100     306.407
  N      394.291     278.370     306.774
  C      393.288     278.405     307.666
  C      392.574     277.333     308.173
  C      392.937     276.059     307.707
  N      392.296     274.904     308.088
  N      391.599     277.769     309.049
  C      391.737     279.079     309.082
  N      392.722     279.516     308.239
  O      395.787     281.169     313.079
  O      393.527     281.072     314.326
  H      391.627     283.763     307.613
  H      395.811     282.098     313.381
  H      395.367     276.973     305.691
  H      391.143     279.754     309.688
  H      393.551     280.901     306.952
  H      390.988     281.535     307.916
  H      391.747     281.519     310.230
  H      394.070     283.296     309.254
  H      395.301     282.187     311.104
  H      392.527     274.059     307.589
  H      391.455     274.976     308.640
  H      393.910     283.132     311.701
  P      389.953     283.581     310.030
  C      388.000     284.825     308.846
  O      389.377     284.458     308.812
  O      389.744     284.534     311.300
  O      389.331     282.240     310.219
  H      388.962     284.262     311.812
  H      387.763     285.402     307.977
  H      387.807     285.406     309.723
  H      387.396     283.942     308.864

 6  7  8  9  10  11  12  13  14  15  25  28  32  33  34  35 0
 6-311+G(2d,p)
 ****
 36  39  40 0
 6-311+G(2d,p)
 ****
 1  2  3  4  5  16  17  18  19  20  21  22  23  24 0
 3-21G
 ****
 26  27  29  30  31  37  38  41  42  43  44  45  46  47 0
 3-21G
 ****
 48 0
 3-21G
 ****


