%nproc=1
%NoSave
%Mem=1900MB
#P OB98/GEN NMR

erre ene a

0 1
  C      -33.381      18.108     -22.437
  O      -34.554      18.849     -22.166
  H      -32.747      18.688     -23.112
  H      -33.637      17.161     -22.921
  H      -32.831      17.917     -21.511
  P      -35.633      18.151     -21.205
  C      -37.325      16.207     -21.491
  O      -36.466      17.138     -22.131
  C      -38.077      15.377     -22.527
  O      -39.071      16.179     -23.201
  C      -37.193      14.776     -23.613
  O      -36.583      13.575     -23.172
  C      -38.205      14.547     -24.726
  O      -38.956      13.334     -24.516
  C      -39.110      15.780     -24.597
  N      -40.759      19.914     -26.978
  C      -41.427      19.037     -26.150
  N      -42.747      19.268     -25.971
  N      -40.860      18.021     -25.557
  C      -39.545      17.896     -25.855
  C      -38.767      18.708     -26.647
  C      -39.403      19.848     -27.271
  O      -38.852      20.699     -27.963
  N      -37.471      18.265     -26.690
  C      -37.474      17.167     -25.958
  N      -38.714      16.892     -25.443
  O      -36.684      19.324     -20.910
  O      -35.088      17.573     -19.944
  H      -38.351      12.574     -24.542
  H      -37.067      19.194     -20.022
  H      -41.247      20.688     -27.391
  H      -36.611      16.543     -25.773
  H      -40.153      15.553     -24.841
  H      -37.720      14.447     -25.698
  H      -43.286      19.803     -26.638
  H      -36.442      15.501     -23.948
  H      -43.249      18.616     -25.383
  H      -38.612      14.585     -21.987
  H      -38.048      16.754     -20.876
  H      -36.730      15.553     -20.845
  P      -35.020      13.376     -23.479
  C      -33.621      13.107     -25.655
  O      -34.904      13.057     -25.046
  O      -34.685      11.969     -22.793
  O      -34.142      14.471     -22.975
  H      -33.720      11.875     -22.679
  H      -33.710      12.872     -26.695
  H      -32.974      12.397     -25.183
  H      -33.212      14.090     -25.545

 6  7  8  9  10  11  12  13  14  15  26  29  33  34 0
 6-311+G(2d,p)
 ****
 36  38  39  40  41 0
 6-311+G(2d,p)
 ****
 1  2  3  4  5  16  17  18  19  20  21  22  23  24  25 0
 3-21G
 ****
 27  28  30  31  32  35  37  42  43  44  45  46  47 0
 3-21G
 ****
 48  49 0
 3-21G
 ****


