%nproc=1
%NoSave
%Mem=1900MB
#P OB98/GEN NMR

erre ene a

0 1
  C     -172.661    -153.470      25.770
  O     -172.752    -153.697      24.377
  H     -173.663    -153.252      26.151
  H     -172.020    -152.607      25.965
  H     -172.273    -154.352      26.284
  P     -171.446    -154.177      23.582
  C     -170.368    -151.981      22.758
  O     -170.342    -153.018      23.731
  C     -169.206    -151.005      22.977
  O     -169.389    -150.344      24.258
  C     -167.830    -151.678      22.990
  O     -166.882    -150.819      22.361
  C     -167.512    -151.803      24.469
  O     -166.108    -151.846      24.719
  C     -168.198    -150.566      25.043
  N     -166.500    -150.050      29.777
  C     -165.919    -149.686      28.576
  N     -164.696    -149.116      28.643
  N     -166.488    -149.868      27.410
  C     -167.721    -150.428      27.499
  C     -168.403    -150.833      28.623
  C     -167.748    -150.645      29.902
  O     -168.209    -150.963      31.000
  N     -169.620    -151.376      28.300
  C     -169.672    -151.300      26.982
  N     -168.540    -150.743      26.446
  O     -171.691    -154.624      22.174
  O     -170.851    -155.361      24.476
  H     -165.795    -152.733      24.439
  H     -171.027    -156.228      24.071
  H     -166.014    -149.897      30.642
  H     -170.501    -151.634      26.370
  H     -167.570    -149.672      24.980
  H     -167.959    -152.724      24.868
  H     -164.214    -148.924      29.506
  H     -167.839    -152.645      22.485
  H     -164.263    -148.812      27.780
  H     -169.255    -150.227      22.208
  H     -171.321    -151.446      22.852
  H     -170.306    -152.421      21.758
  P     -166.714    -150.872      20.767
  C     -164.400    -151.994      20.700
  O     -165.782    -152.126      20.387
  O     -166.332    -149.585      20.116
  O     -168.166    -151.356      20.274
  H     -168.369    -150.930      19.417
  H     -163.881    -152.882      20.405
  H     -164.285    -151.847      21.754
  H     -163.994    -151.153      20.177

 6  7  8  9  10  11  12  13  14  15  26  29  33  34 0
 6-311+G(2d,p)
 ****
 36  38  39  40  41 0
 6-311+G(2d,p)
 ****
 1  2  3  4  5  16  17  18  19  20  21  22  23  24  25 0
 3-21G
 ****
 27  28  30  31  32  35  37  42  43  44  45  46  47 0
 3-21G
 ****
 48  49 0
 3-21G
 ****


