%nproc=1
%NoSave
%Mem=1900MB
#P OB98/GEN NMR

erre ene a

0 1
  C       29.603     -12.830     -22.795
  O       30.670     -13.605     -23.315
  P       32.128     -13.407     -22.683
  C       32.510     -11.408     -24.295
  O       32.588     -11.894     -22.963
  C       33.872     -10.896     -24.768
  O       34.262      -9.747     -23.970
  C       34.992     -11.933     -24.649
  O       35.927     -11.748     -25.722
  C       35.696     -11.547     -23.365
  O       37.041     -12.023     -23.342
  C       35.561     -10.026     -23.411
  N       38.031      -6.517     -20.743
  C       37.947      -6.680     -22.111
  N       38.694      -5.843     -22.863
  N       37.194      -7.577     -22.689
  C       36.507      -8.347     -21.810
  C       36.496      -8.271     -20.435
  C       37.343      -7.281     -19.809
  O       37.484      -7.104     -18.604
  N       35.648      -9.198     -19.889
  C       35.176      -9.865     -20.924
  N       35.697      -9.410     -22.108
  O       33.060     -14.269     -23.658
  O       32.263     -13.866     -21.271
  H       37.507     -11.591     -24.083
  H       33.322     -15.099     -23.217
  H       38.635      -5.817     -20.344
  H       34.484     -10.694     -20.871
  H       36.309      -9.576     -24.075
  H       35.168     -11.973     -22.504
  H       39.345      -5.176     -22.477
  H       34.649     -12.973     -24.642
  H       38.685      -5.972     -23.866
  H       33.774     -10.549     -25.803
  H       31.789     -10.591     -24.334
  H       32.158     -12.207     -24.957
  P       36.327     -13.069     -26.542
  C       38.400     -13.521     -25.035
  O       37.156     -13.982     -25.522
  O       37.434     -12.544     -27.570
  O       35.181     -13.734     -27.229
  H       37.463     -13.118     -28.358
  H       38.330     -13.390     -23.952
  H       38.698     -12.572     -25.490
  H       39.166     -14.270     -25.253
  H       28.700     -13.073     -23.315
  H       29.821     -11.790     -22.925
  H       29.483     -13.042     -21.753

 3  4  5  6  7  8  9  10  11  12  23  26  30  31 0
 6-311+G(2d,p)
 ****
 33  35  36  37  38 0
 6-311+G(2d,p)
 ****
 1  2  13  14  15  16  17  18  19  20  21  22  24  25 0
 3-21G
 ****
 27  28  29  32  34  39  40  41  42  43  44  45  46  47  48  49 0
 3-21G
 ****


