%nproc=1
%NoSave
%Mem=1900MB
#P OB98/GEN NMR

erre ene a

0 1
  C      584.207     520.161     297.342
  O      584.743     521.359     296.833
  P      583.834     522.445     296.098
  C      583.028     522.827     293.672
  O      583.562     521.895     294.606
  C      582.963     522.178     292.272
  O      584.312     522.092     291.729
  C      582.362     520.755     292.294
  O      581.276     520.575     291.370
  C      583.575     519.882     292.060
  O      583.275     518.593     291.560
  C      584.440     520.780     291.158
  N      585.837     520.340     291.084
  C      586.146     519.382     290.109
  O      585.346     518.930     289.310
  N      587.437     518.937     290.109
  C      588.397     519.238     291.040
  O      589.505     518.718     291.039
  C      587.992     520.206     292.073
  C      586.749     520.726     292.038
  O      584.327     523.849     296.139
  O      582.397     522.235     296.789
  H      584.112     518.138     291.342
  H      582.025     521.345     296.700
  H      587.689     518.251     289.410
  H      588.730     520.454     292.832
  H      586.434     521.438     292.793
  H      584.047     520.827     290.145
  H      584.085     519.739     293.021
  H      581.928     520.534     293.274
  H      582.370     522.860     291.637
  H      583.674     523.706     293.632
  H      582.040     523.155     293.997
  P      579.927     519.768     291.702
  C      579.269     517.260     292.083
  O      580.287     518.207     291.846
  O      578.779     520.059     290.806
  O      579.592     520.189     293.216
  H      578.641     520.153     293.369
  H      579.691     516.413     292.634
  H      578.881     516.923     291.111
  H      578.449     517.711     292.661
  H      584.988     519.583     297.791
  H      583.763     519.602     296.545
  H      583.463     520.387     298.077

 3  4  5  6  7  8  9  10  11  12  13  23  28  29  30  31  32 0
 6-311+G(2d,p)
 ****
 33  34 0
 6-311+G(2d,p)
 ****
 1  2  14  15  16  17  18  19  20  21  22  24  25  26  27 0
 3-21G
 ****
 35  36  37  38  39  40  41  42  43  44  45 0
 3-21G
 ****


