%nproc=1
%NoSave
%Mem=1900MB
#P OB98/GEN NMR

erre ene a

0 1
  C     -458.460      35.441     -97.500
  O     -458.069      34.095     -97.795
  P     -458.767      33.385     -99.056
  C     -456.747      31.740     -98.965
  O     -458.134      31.924     -99.232
  C     -456.361      30.268     -99.138
  O     -456.868      29.466     -98.053
  C     -456.940      29.646    -100.396
  O     -456.192      30.035    -101.534
  C     -456.857      28.153    -100.084
  O     -455.602      27.594    -100.509
  C     -456.979      28.116     -98.544
  N     -458.217      27.490     -98.092
  C     -458.202      26.095     -98.016
  O     -457.195      25.461     -98.341
  N     -459.343      25.451     -97.600
  C     -460.406      26.137     -97.314
  N     -461.508      25.443     -96.910
  C     -460.467      27.613     -97.406
  C     -459.350      28.221     -97.804
  O     -458.176      34.199    -100.304
  O     -460.261      33.427     -99.024
  H     -455.605      26.664    -100.204
  H     -458.839      34.243    -101.018
  H     -461.378      28.143     -97.162
  H     -459.302      29.300     -97.901
  H     -456.140      27.556     -98.107
  H     -457.644      27.594    -100.595
  H     -457.993      29.938    -100.513
  H     -455.264      30.193     -99.150
  H     -461.428      24.437     -96.858
  H     -456.513      32.067     -97.947
  H     -462.383      25.877     -96.670
  H     -456.168      32.382     -99.641
  P     -456.902      30.994    -102.607
  C     -454.590      32.022    -103.083
  O     -455.736      31.403    -103.637
  O     -457.089      32.350    -101.766
  O     -458.186      30.527    -103.202
  H     -457.605      32.997    -102.278
  H     -453.808      32.055    -103.842
  H     -454.227      31.458    -102.217
  H     -454.833      33.048    -102.783
  H     -457.922      35.789     -96.643
  H     -459.510      35.471     -97.299
  H     -458.239      36.068     -98.338

 3  4  5  6  7  8  9  10  11  12  13  21  23  27  28  29  30  32 0
 6-311+G(2d,p)
 ****
 34  35 0
 6-311+G(2d,p)
 ****
 1  2  14  15  16  17  18  19  20  22  24  25  26 0
 3-21G
 ****
 31  33  36  37  38  39  40  41  42  43  44  45  46 0
 3-21G
 ****


