%nproc=1
%NoSave
%Mem=1900MB
#P OB98/GEN NMR

erre ene a

0 1
  C      702.771     884.130    -375.296
  O      703.630     885.231    -375.084
  H      703.374     883.218    -375.332
  H      702.247     884.242    -376.248
  H      702.047     884.049    -374.480
  P      702.950     886.664    -374.841
  C      703.921     887.132    -372.479
  O      702.766     886.828    -373.249
  C      703.568     887.185    -370.992
  O      702.675     888.303    -370.755
  C      702.887     885.919    -370.486
  O      703.358     885.631    -369.155
  C      701.417     886.292    -370.411
  O      700.678     885.512    -369.472
  C      701.501     887.796    -370.084
  N      700.297     888.509    -370.500
  C      699.182     888.396    -369.648
  O      699.250     887.717    -368.632
  N      698.012     889.004    -370.023
  C      697.921     889.586    -371.190
  N      696.717     890.135    -371.506
  C      699.052     889.668    -372.133
  C      700.196     889.108    -371.735
  O      701.445     886.455    -375.351
  O      703.633     887.822    -375.502
  H      701.078     885.656    -368.578
  H      701.086     887.285    -375.731
  H      698.917     890.141    -373.086
  H      701.073     889.112    -372.365
  H      701.648     887.941    -369.005
  H      700.950     886.151    -371.407
  H      703.062     885.037    -371.116
  H      704.491     887.386    -370.425
  H      695.975     890.049    -370.833
  H      704.304     888.117    -372.782
  H      696.527     890.577    -372.393
  H      704.707     886.379    -372.667
  P      704.026     884.207    -368.928
  C      706.459     885.093    -369.305
  O      705.448     884.179    -369.719
  O      703.114     883.202    -369.775
  O      704.105     883.787    -367.501
  H      702.573     882.653    -369.180
  H      707.330     884.960    -369.911
  H      706.706     884.911    -368.280
  H      706.100     886.095    -369.413

 6  7  8  9  10  11  12  13  14  15  16  26  30  31  32  33  35 0
 6-311+G(2d,p)
 ****
 37  38 0
 6-311+G(2d,p)
 ****
 1  2  3  4  5  17  18  19  20  21  22  23  24  25 0
 3-21G
 ****
 27  28  29  34  36  39  40  41  42  43  44  45  46 0
 3-21G
 ****


