%nproc=1
%NoSave
%Mem=1900MB
#P OB98/GEN NMR

erre ene a

0 1
  C     -114.128     346.255     117.504
  O     -115.014     346.805     116.550
  H     -113.153     346.738     117.392
  H     -114.005     345.182     117.333
  H     -114.492     346.433     118.519
  P     -116.549     346.340     116.562
  C     -117.865     346.097     118.757
  O     -117.218     346.993     117.867
  C     -117.943     346.693     120.160
  O     -116.599     346.991     120.617
  C     -118.762     347.986     120.234
  O     -119.487     347.994     121.465
  C     -117.704     349.071     120.260
  O     -118.163     350.261     120.905
  C     -116.560     348.380     121.000
  N     -113.888     352.665     121.026
  C     -115.151     352.400     121.516
  N     -115.815     353.435     122.078
  N     -115.716     351.224     121.459
  C     -114.932     350.278     120.886
  C     -113.669     350.417     120.360
  C     -113.059     351.728     120.416
  O     -111.952     352.028     119.986
  N     -113.216     349.229     119.840
  C     -114.202     348.377     120.048
  N     -115.272     348.968     120.671
  O     -116.774     344.868     116.424
  O     -117.212     347.158     115.359
  H     -117.447     350.928     120.819
  H     -117.303     346.595     114.567
  H     -113.504     353.594     121.086
  H     -114.200     347.334     119.765
  H     -116.670     348.443     122.090
  H     -117.411     349.328     119.235
  H     -115.439     354.363     122.172
  H     -119.453     348.102     119.393
  H     -116.733     353.257     122.468
  H     -118.348     345.933     120.839
  H     -117.287     345.165     118.785
  H     -118.872     345.877     118.385
  P     -120.752     347.019     121.621
  C     -120.035     344.675     120.824
  O     -120.211     345.544     121.939
  O     -121.768     347.104     120.533
  O     -121.375     347.472     123.029
  H     -122.340     347.319     123.009
  H     -119.673     343.727     121.164
  H     -119.328     345.104     120.145
  H     -120.972     344.540     120.325

 6  7  8  9  10  11  12  13  14  15  26  29  33  34 0
 6-311+G(2d,p)
 ****
 36  38  39  40  41 0
 6-311+G(2d,p)
 ****
 1  2  3  4  5  16  17  18  19  20  21  22  23  24  25 0
 3-21G
 ****
 27  28  30  31  32  35  37  42  43  44  45  46  47 0
 3-21G
 ****
 48  49 0
 3-21G
 ****


