%nproc=1
%NoSave
%Mem=1900MB
#P OB98/GEN NMR

erre ene a

0 1
  C      280.034    -521.498     164.699
  O      278.994    -521.423     165.652
  H      279.621    -521.566     163.688
  H      280.643    -520.592     164.771
  H      280.668    -522.366     164.902
  P      277.923    -522.615     165.632
  C      278.154    -522.528     168.211
  O      277.279    -522.675     167.102
  C      277.368    -522.109     169.448
  O      276.369    -523.103     169.766
  C      278.202    -521.958     170.713
  O      278.910    -520.726     170.741
  C      277.114    -522.001     171.776
  O      276.486    -520.711     171.878
  C      276.122    -523.020     171.193
  N      273.645    -526.869     173.521
  C      273.222    -525.667     173.073
  N      273.936    -524.691     172.476
  C      275.220    -525.057     172.337
  C      275.795    -526.249     172.743
  C      274.950    -527.181     173.369
  N      275.397    -528.400     173.836
  N      277.136    -526.278     172.422
  C      277.369    -525.124     171.831
  N      276.243    -524.346     171.762
  O      278.832    -523.934     165.572
  O      276.944    -522.576     164.506
  H      277.190    -520.073     172.104
  H      278.382    -524.604     165.024
  H      272.164    -525.459     173.209
  H      278.330    -524.813     171.440
  H      275.084    -522.690     171.318
  H      277.490    -522.262     172.766
  H      278.876    -522.813     170.848
  H      276.844    -521.171     169.214
  H      278.901    -521.759     167.985
  H      274.717    -529.096     174.092
  H      276.377    -528.627     173.710
  H      278.664    -523.479     168.387
  P      280.355    -520.720     171.440
  C      280.576    -518.269     170.617
  O      280.696    -519.177     171.710
  O      281.341    -521.112     170.240
  O      280.501    -521.642     172.602
  H      282.152    -521.522     170.597
  H      280.833    -517.283     170.943
  H      279.568    -518.274     170.258
  H      281.237    -518.568     169.830

 6  7  8  9  10  11  12  13  14  15  25  28  32  33  34  35 0
 6-311+G(2d,p)
 ****
 36  39  40 0
 6-311+G(2d,p)
 ****
 1  2  3  4  5  16  17  18  19  20  21  22  23  24 0
 3-21G
 ****
 26  27  29  30  31  37  38  41  42  43  44  45  46  47  48 0
 3-21G
 ****


