%nproc=1
%NoSave
%Mem=1900MB
#P OB98/GEN NMR

erre ene a

0 1
  C      308.871     404.040     277.120
  O      309.568     405.019     276.342
  P      309.136     406.566     276.327
  C      311.398     407.330     277.296
  O      309.981     407.347     277.445
  C      312.049     408.562     277.930
  O      311.707     409.755     277.197
  C      311.637     408.825     279.376
  O      312.333     407.964     280.256
  C      311.975     410.305     279.516
  O      313.379     410.479     279.773
  C      311.612     410.848     278.131
  N      308.615     414.542     280.010
  C      309.910     414.227     280.235
  N      310.636     413.224     279.698
  C      309.898     412.519     278.827
  C      308.563     412.717     278.500
  C      307.910     413.787     279.136
  N      306.589     414.095     278.919
  N      308.140     411.778     277.585
  C      309.203     411.033     277.349
  N      310.287     411.440     278.077
  O      307.662     406.791     276.403
  O      309.726     407.139     274.950
  H      313.865     410.026     279.063
  H      309.174     407.884     274.644
  H      310.432     414.867     280.943
  H      309.237     410.197     276.665
  H      312.326     411.608     277.795
  H      311.431     410.786     280.339
  H      310.556     408.687     279.486
  H      313.138     408.439     277.860
  H      311.631     407.302     276.225
  H      306.184     414.856     279.439
  H      306.044     413.509     278.303
  H      311.787     406.419     277.767
  P      311.690     407.563     281.667
  C      312.906     405.309     281.550
  O      311.663     405.963     281.736
  O      310.399     408.236     282.001
  O      312.833     407.943     282.726
  H      312.416     408.182     283.576
  H      313.130     405.258     280.479
  H      312.828     404.291     281.945
  H      313.710     405.831     282.069
  H      309.327     403.082     276.980
  H      307.849     403.997     276.807
  H      308.916     404.309     278.155

 3  4  5  6  7  8  9  10  11  12  22  25  29  30  31  32 0
 6-311+G(2d,p)
 ****
 33  36  37 0
 6-311+G(2d,p)
 ****
 1  2  13  14  15  16  17  18  19  20  21  23  24  26 0
 3-21G
 ****
 27  28  34  35  38  39  40  41  42  43  44  45  46  47  48 0
 3-21G
 ****


