%nproc=1
%NoSave
%Mem=1900MB
#P OB98/GEN NMR

erre ene a

0 1
  C      -82.530      48.279      -1.923
  O      -83.591      48.833      -1.173
  H      -82.899      47.393      -2.447
  H      -81.707      47.979      -1.267
  H      -82.173      48.998      -2.665
  P      -83.275      50.082      -0.214
  C      -82.773      48.493       1.771
  O      -82.269      49.488       0.891
  C      -81.621      47.710       2.396
  O      -80.907      46.953       1.398
  C      -80.555      48.566       3.071
  O      -80.967      49.108       4.314
  C      -79.447      47.536       3.224
  O      -79.760      46.652       4.315
  C      -79.537      46.794       1.868
  N      -78.594      47.305       0.873
  C      -77.986      46.355       0.040
  O      -78.250      45.159       0.158
  N      -77.064      46.781      -0.885
  C      -76.759      48.040      -0.959
  N      -75.804      48.402      -1.863
  C      -77.387      49.075      -0.116
  C      -78.280      48.642       0.773
  O      -84.459      50.817       0.327
  O      -82.294      51.008      -1.077
  H      -79.005      46.044       4.416
  H      -82.077      51.803      -0.531
  H      -77.090      50.109      -0.213
  H      -78.771      49.341       1.441
  H      -79.365      45.719       2.000
  H      -78.468      47.981       3.434
  H      -80.205      49.357       2.399
  H      -82.058      46.984       3.098
  H      -75.367      47.661      -2.395
  H      -83.432      47.833       1.199
  H      -75.321      49.292      -1.789
  H      -83.349      48.960       2.576
  P      -80.359      50.529       4.755
  C      -78.976      49.251       6.556
  O      -78.984      50.225       5.524
  O      -81.349      50.994       5.921
  O      -80.236      51.547       3.663
  H      -82.059      51.567       5.571
  H      -77.990      49.170       6.963
  H      -79.275      48.305       6.156
  H      -79.657      49.543       7.328

 6  7  8  9  10  11  12  13  14  15  16  26  30  31  32  33  35 0
 6-311+G(2d,p)
 ****
 37  38 0
 6-311+G(2d,p)
 ****
 1  2  3  4  5  17  18  19  20  21  22  23  24  25 0
 3-21G
 ****
 27  28  29  34  36  39  40  41  42  43  44  45  46 0
 3-21G
 ****


