%nproc=1
%NoSave
%Mem=1900MB
#P OB98/GEN NMR

erre ene a

0 1
  C     -111.558      17.211     -98.564
  O     -110.797      18.400     -98.603
  H     -110.918      16.395     -98.220
  H     -111.923      16.967     -99.566
  H     -112.401      17.315     -97.875
  P     -111.575      19.765     -98.933
  C     -113.114      20.501    -100.890
  O     -112.044      19.668    -100.465
  C     -113.107      20.641    -102.414
  O     -112.086      21.603    -102.792
  C     -112.812      19.330    -103.150
  O     -113.621      19.277    -104.330
  C     -111.351      19.460    -103.546
  O     -111.017      18.665    -104.683
  C     -111.219      20.973    -103.755
  N     -109.836      21.417    -103.610
  C     -109.146      21.717    -104.789
  O     -109.704      21.596    -105.883
  N     -107.827      22.089    -104.710
  C     -107.225      22.077    -103.563
  N     -105.908      22.429    -103.553
  C     -107.894      21.703    -102.299
  C     -109.188      21.394    -102.397
  O     -110.407      20.857     -98.975
  O     -112.661      20.128     -97.974
  H     -110.050      18.743    -104.840
  H     -110.727      21.729     -98.675
  H     -107.342      21.683    -101.371
  H     -109.759      21.097    -101.525
  H     -111.576      21.256    -104.757
  H     -110.718      19.135    -102.712
  H     -112.998      18.442    -102.540
  H     -114.069      21.059    -102.728
  H     -105.481      22.663    -104.441
  H     -112.991      21.494    -100.443
  H     -105.331      22.412    -102.725
  H     -114.064      20.076    -100.550
  P     -114.815      18.204    -104.335
  C     -115.061      15.638    -104.650
  O     -114.192      16.762    -104.658
  O     -115.632      18.571    -105.663
  O     -115.681      18.264    -103.120
  H     -116.485      18.985    -105.426
  H     -114.504      14.755    -104.882
  H     -115.830      15.776    -105.381
  H     -115.504      15.537    -103.681

 6  7  8  9  10  11  12  13  14  15  16  26  30  31  32  33  35 0
 6-311+G(2d,p)
 ****
 37  38 0
 6-311+G(2d,p)
 ****
 1  2  3  4  5  17  18  19  20  21  22  23  24  25 0
 3-21G
 ****
 27  28  29  34  36  39  40  41  42  43  44  45  46 0
 3-21G
 ****


