%nproc=1
%NoSave
%Mem=1900MB
#P OB98/GEN NMR

erre ene a

0 1
  C      128.489    -677.480      42.631
  O      127.866    -678.266      41.605
  P      128.625    -678.322      40.191
  C      127.490    -680.563      39.510
  O      127.720    -679.184      39.193
  C      126.362    -681.168      38.665
  O      125.130    -680.420      38.908
  C      126.596    -681.134      37.141
  O      126.071    -682.330      36.579
  C      125.729    -679.970      36.667
  O      125.392    -680.083      35.289
  C      124.553    -680.119      37.632
  N      121.784    -676.728      35.061
  C      122.354    -677.914      34.640
  N      122.198    -678.231      33.318
  N      123.026    -678.723      35.409
  C      123.108    -678.287      36.705
  C      122.582    -677.135      37.247
  C      121.859    -676.246      36.368
  O      121.384    -675.164      36.667
  N      122.851    -677.055      38.583
  C      123.556    -678.145      38.852
  N      123.745    -678.911      37.737
  O      129.883    -679.261      40.503
  O      129.059    -676.974      39.674
  H      126.238    -680.191      34.819
  H      130.720    -678.795      40.268
  H      121.287    -676.133      34.408
  H      123.967    -678.393      39.830
  H      123.892    -680.940      37.333
  H      126.276    -679.046      36.831
  H      121.620    -677.690      32.688
  H      127.648    -681.025      36.858
  H      122.558    -679.120      33.003
  H      126.204    -682.200      39.007
  H      127.220    -680.629      40.568
  H      128.418    -681.118      39.354
  P      126.970    -683.042      35.437
  C      125.904    -685.411      35.839
  O      126.092    -684.308      34.944
  O      128.148    -683.722      36.275
  O      127.452    -682.132      34.387
  H      128.952    -683.811      35.735
  H      126.209    -685.175      36.861
  H      126.493    -686.262      35.462
  H      124.844    -685.678      35.835
  H      127.895    -677.519      43.520
  H      128.572    -676.465      42.302
  H      129.464    -677.870      42.836

 3  4  5  6  7  8  9  10  11  12  23  26  30  31  33  0
 6-311+G(2d,p)
 ****
 35  36  37  38 0
 6-311+G(2d,p)
 ****
 1  2  13  14  15  16  17  18  19  20  21  22  24  25  27  28  29 0
 3-21G
 ****
 32  34  39  40  41  42  43  44  45  46  47  48  49 0
 3-21G
 ****


