%nproc=1
%NoSave
%Mem=1900MB
#P OB98/GEN NMR

erre ene a

0 1
  C        9.266     -56.568      42.972
  O        9.868     -55.311      43.215
  H        8.718     -56.872      43.868
  H       10.021     -57.325      42.748
  H        8.560     -56.489      42.141
  P       10.953     -54.776      42.161
  C       13.408     -55.379      41.649
  O       12.196     -55.791      42.277
  C       14.479     -56.465      41.751
  O       13.983     -57.722      41.246
  C       15.730     -56.184      40.932
  O       16.493     -55.087      41.377
  C       16.373     -57.560      40.860
  O       17.136     -57.865      42.028
  C       15.127     -58.477      40.787
  N       14.915     -59.017      39.449
  C       14.901     -60.403      39.346
  O       15.077     -61.158      40.303
  N       14.709     -60.906      38.088
  C       14.581     -60.173      36.945
  O       14.432     -60.687      35.841
  C       14.643     -58.713      37.109
  C       14.803     -58.208      38.336
  O       11.334     -53.331      42.300
  O       10.319     -55.141      40.739
  H       17.778     -57.139      42.145
  H       10.771     -54.649      40.010
  H       14.680     -61.910      37.995
  H       14.558     -58.100      36.223
  H       14.850     -57.131      38.484
  H       15.237     -59.323      41.479
  H       17.041     -57.658      40.002
  H       15.420     -55.935      39.908
  H       14.722     -56.605      42.810
  H       13.760     -54.477      42.161
  H       13.213     -55.138      40.599
  P       17.087     -53.968      40.409
  C       19.341     -53.855      39.088
  O       18.222     -54.635      39.494
  O       17.369     -52.634      41.020
  O       15.877     -53.776      39.355
  H       15.873     -52.833      39.092
  H       19.994     -54.453      38.488
  H       19.868     -53.510      39.953
  H       19.002     -53.015      38.518

 6  7  8  9  10  11  12  13  14  15  16  26  31  32  33  34  35 0
 6-311+G(2d,p)
 ****
 36  37 0
 6-311+G(2d,p)
 ****
 1  2  3  4  5  17  18  19  20  21  22  23  24  25 0
 3-21G
 ****
 27  28  29  30  38  39  40  41  42  43  44  45 0
 3-21G
 ****


