%nproc=1
%NoSave
%Mem=1900MB
#P OB98/GEN NMR

erre ene a

0 1
  C      -20.751     415.666    -143.561
  O      -19.620     416.464    -143.843
  H      -20.456     414.614    -143.591
  H      -21.531     415.834    -144.310
  H      -21.138     415.898    -142.566
  P      -19.874     418.047    -143.950
  C      -18.994     418.378    -141.516
  O      -20.080     418.497    -142.421
  C      -19.175     419.360    -140.363
  O      -19.227     420.717    -140.853
  C      -20.465     419.162    -139.575
  O      -20.393     418.086    -138.657
  C      -20.561     420.502    -138.869
  O      -19.626     420.539    -137.775
  C      -20.132     421.466    -139.998
  N      -21.261     421.982    -140.773
  C      -21.964     423.058    -140.219
  O      -21.639     423.523    -139.129
  N      -23.047     423.563    -140.901
  C      -23.391     423.048    -142.039
  N      -24.478     423.577    -142.663
  C      -22.667     421.926    -142.667
  C      -21.628     421.449    -141.989
  O      -21.357     418.152    -144.546
  O      -18.851     418.826    -144.704
  H      -19.812     419.761    -137.218
  H      -21.656     419.092    -144.533
  H      -22.999     421.524    -143.613
  H      -21.051     420.622    -142.388
  H      -19.569     422.317    -139.595
  H      -21.551     420.699    -138.453
  H      -21.330     419.054    -140.239
  H      -18.294     419.281    -139.711
  H      -24.989     424.303    -142.180
  H      -18.068     418.598    -142.057
  H      -24.924     423.130    -143.454
  H      -18.944     417.359    -141.121
  P      -21.773     417.526    -138.055
  C      -22.085     415.421    -139.545
  O      -22.517     416.741    -139.240
  O      -22.654     418.849    -137.883
  O      -21.640     416.769    -136.771
  H      -23.185     418.815    -137.065
  H      -22.671     415.031    -140.351
  H      -22.205     414.798    -138.683
  H      -21.054     415.440    -139.831

 6  7  8  9  10  11  12  13  14  15  16  26  30  31  32  33  35 0
 6-311+G(2d,p)
 ****
 37  38 0
 6-311+G(2d,p)
 ****
 1  2  3  4  5  17  18  19  20  21  22  23  24  25 0
 3-21G
 ****
 27  28  29  34  36  39  40  41  42  43  44  45  46 0
 3-21G
 ****


