%nproc=1
%NoSave
%Mem=1900MB
#P OB98/GEN NMR

erre ene a

0 1
  C      136.236     -99.264       9.026
  O      136.941    -100.505       9.200
  P      137.488    -100.896      10.661
  C      135.288    -101.805      11.747
  O      136.586    -102.087      11.245
  C      135.027    -102.615      13.020
  O      133.689    -102.373      13.510
  C      135.115    -104.121      12.835
  O      136.458    -104.570      12.762
  C      134.376    -104.622      14.069
  O      135.244    -104.642      15.216
  C      133.278    -103.553      14.237
  N      131.965    -104.020      13.797
  C      131.346    -104.968      14.603
  O      131.874    -105.452      15.603
  N      130.103    -105.375      14.198
  C      129.462    -104.984      13.057
  O      128.356    -105.400      12.738
  C      130.202    -104.044      12.205
  C      131.402    -103.616      12.604
  O      136.998     -99.648      11.544
  O      138.964    -101.076      10.774
  H      134.701    -104.935      15.973
  H      137.604     -99.525      12.300
  H      129.623    -106.041      14.783
  H      129.740    -103.726      11.278
  H      131.962    -102.918      11.986
  H      133.206    -103.248      15.287
  H      133.989    -105.638      13.943
  H      134.559    -104.421      11.938
  H      135.736    -102.279      13.790
  H      134.542    -102.075      10.993
  H      135.210    -100.732      11.950
  P      136.730    -105.902      11.905
  C      136.116    -105.224       9.455
  O      137.117    -105.386      10.438
  O      135.242    -106.481      11.764
  O      137.701    -106.828      12.555
  H      134.578    -105.774      11.709
  H      135.166    -104.915       9.895
  H      135.980    -106.168       8.921
  H      136.444    -104.460       8.744
  H      135.944     -99.160       8.002
  H      136.874     -98.450       9.299
  H      135.365     -99.258       9.648

 3  4  5  6  7  8  9  10  11  12  13  23  28  29  30  31  32 0
 6-311+G(2d,p)
 ****
 33  34 0
 6-311+G(2d,p)
 ****
 1  2  14  15  16  17  18  19  20  21  22  24  25  26 0
 3-21G
 ****
 27  35  36  37  38  39  40  41  42  43  44  45 0
 3-21G
 ****


