%nproc=1
%NoSave
%Mem=1900MB
#P OB98/GEN NMR

erre ene a

0 1
  C     -206.172    -706.384     -20.584
  O     -205.798    -707.184     -21.692
  H     -206.685    -707.014     -19.854
  H     -206.858    -705.598     -20.912
  H     -205.291    -705.941     -20.116
  P     -204.951    -706.467     -22.847
  C     -202.443    -705.828     -23.015
  O     -203.398    -706.750     -22.518
  C     -201.058    -706.117     -22.429
  O     -201.102    -705.865     -20.990
  C     -200.576    -707.563     -22.633
  O     -199.154    -707.530     -22.819
  C     -200.855    -708.211     -21.280
  O     -200.072    -709.374     -21.060
  C     -200.546    -707.037     -20.347
  N     -199.998    -709.658     -16.083
  C     -199.234    -709.649     -17.239
  N     -198.157    -710.460     -17.262
  N     -199.500    -708.904     -18.279
  C     -200.589    -708.117     -18.107
  C     -201.434    -708.032     -17.017
  C     -201.133    -708.882     -15.884
  O     -201.785    -708.953     -14.841
  N     -202.444    -707.133     -17.242
  C     -202.207    -706.665     -18.458
  N     -201.100    -707.230     -19.022
  O     -205.133    -704.912     -22.506
  O     -205.372    -706.789     -24.245
  H     -200.374    -710.068     -21.685
  H     -205.883    -704.544     -23.013
  H     -199.750    -710.261     -15.319
  H     -202.817    -705.930     -18.976
  H     -199.465    -706.883     -20.226
  H     -201.919    -708.492     -21.215
  H     -197.857    -711.023     -16.482
  H     -201.046    -708.082     -23.468
  H     -197.553    -710.439     -18.084
  H     -200.346    -705.402     -22.847
  H     -202.745    -704.809     -22.739
  H     -202.402    -705.905     -24.109
  P     -198.591    -707.275     -24.300
  C     -197.309    -705.381     -25.541
  O     -197.915    -705.820     -24.331
  O     -199.932    -707.067     -25.156
  O     -197.760    -708.395     -24.843
  H     -199.782    -707.332     -26.078
  H     -196.906    -704.399     -25.403
  H     -198.042    -705.359     -26.320
  H     -196.522    -706.054     -25.811

 6  7  8  9  10  11  12  13  14  15  26  29  33  34 0
 6-311+G(2d,p)
 ****
 36  38  39  40  41 0
 6-311+G(2d,p)
 ****
 1  2  3  4  5  16  17  18  19  20  21  22  23  24  25 0
 3-21G
 ****
 27  28  30  31  32  35  37  42  43  44  45  46  47 0
 3-21G
 ****
 48  49 0
 3-21G
 ****


