%nproc=1
%NoSave
%Mem=1900MB
#P OB98/GEN NMR

erre ene a

0 1
  C      280.452    -403.872    -168.593
  O      280.823    -402.547    -168.905
  H      279.784    -404.242    -169.375
  H      279.920    -403.888    -167.636
  H      281.325    -404.530    -168.539
  P      282.112    -401.920    -168.195
  C      283.892    -403.038    -169.695
  O      283.332    -402.951    -168.391
  C      285.120    -402.137    -169.850
  O      286.173    -402.561    -168.953
  C      285.715    -402.200    -171.259
  O      285.107    -401.353    -172.213
  C      287.164    -401.787    -170.999
  O      287.294    -400.354    -171.005
  C      287.434    -402.347    -169.601
  N      292.033    -404.576    -169.339
  C      291.715    -403.230    -169.338
  N      292.760    -402.372    -169.325
  N      290.492    -402.777    -169.366
  C      289.546    -403.748    -169.473
  C      289.744    -405.114    -169.492
  C      291.100    -405.607    -169.403
  O      291.436    -406.789    -169.403
  N      288.548    -405.792    -169.608
  C      287.647    -404.833    -169.728
  N      288.204    -403.576    -169.628
  O      281.789    -402.065    -166.629
  O      282.414    -400.497    -168.552
  H      288.137    -400.120    -170.583
  H      282.265    -401.379    -166.128
  H      292.988    -404.867    -169.280
  H      286.584    -404.993    -169.869
  H      287.991    -401.628    -168.985
  H      287.838    -402.170    -171.778
  H      293.719    -402.672    -169.422
  H      285.714    -403.236    -171.622
  H      292.582    -401.396    -169.595
  H      284.850    -401.110    -169.570
  H      283.114    -402.728    -170.396
  H      284.148    -404.077    -169.932
  P      285.158    -401.735    -173.769
  C      283.129    -403.355    -173.492
  O      284.467    -403.177    -173.917
  O      286.706    -402.023    -174.012
  O      284.633    -400.685    -174.690
  H      287.149    -401.232    -174.381
  H      282.832    -404.369    -173.663
  H      282.489    -402.698    -174.044
  H      283.054    -403.133    -172.448

 6  7  8  9  10  11  12  13  14  15  26  29  33  34 0
 6-311+G(2d,p)
 ****
 36  38  39  40  41 0
 6-311+G(2d,p)
 ****
 1  2  3  4  5  16  17  18  19  20  21  22  23  24  25 0
 3-21G
 ****
 27  28  30  31  32  35  37  42  43  44  45  46  47 0
 3-21G
 ****
 48  49 0
 3-21G
 ****


