%nproc=1
%NoSave
%Mem=1900MB
#P OB98/GEN NMR

erre ene a

0 1
  C     -167.596     -19.670    -297.801
  O     -166.204     -19.642    -298.052
  P     -165.476     -20.794    -298.896
  C     -165.621     -19.307    -300.992
  O     -165.936     -20.570    -300.421
  C     -165.872     -19.302    -302.503
  O     -165.772     -17.944    -303.009
  C     -164.897     -20.172    -303.318
  O     -165.653     -20.691    -304.420
  C     -163.879     -19.158    -303.797
  O     -163.132     -19.621    -304.913
  C     -164.783     -17.943    -304.063
  N     -164.027     -16.698    -304.111
  C     -163.878     -16.102    -305.366
  O     -164.305     -16.663    -306.379
  N     -163.200     -14.911    -305.458
  C     -162.630     -14.417    -304.399
  N     -161.977     -13.233    -304.549
  C     -162.655     -15.082    -303.083
  C     -163.376     -16.198    -303.006
  O     -165.672     -22.180    -298.378
  O     -163.946     -20.334    -298.925
  H     -163.743     -20.102    -305.516
  H     -163.510     -20.533    -298.060
  H     -162.122     -14.657    -302.246
  H     -163.452     -16.751    -302.084
  H     -165.319     -18.063    -305.013
  H     -163.174     -18.936    -302.989
  H     -164.451     -20.979    -302.739
  H     -166.902     -19.636    -302.673
  H     -162.000     -12.806    -305.468
  H     -164.561     -19.111    -300.817
  H     -161.571     -12.724    -303.775
  H     -166.199     -18.521    -300.499
  P     -165.408     -22.178    -304.966
  C     -166.363     -23.110    -302.782
  O     -165.273     -23.132    -303.687
  O     -164.304     -22.310    -305.969
  O     -166.817     -22.608    -305.596
  H     -166.692     -23.387    -306.172
  H     -166.292     -23.981    -302.123
  H     -167.316     -23.139    -303.312
  H     -166.316     -22.200    -302.174
  H     -167.872     -18.812    -297.224
  H     -167.843     -20.559    -297.259
  H     -168.126     -19.660    -298.730

 3  4  5  6  7  8  9  10  11  12  13  23  27  28  29  30  32 0
 6-311+G(2d,p)
 ****
 34  35 0
 6-311+G(2d,p)
 ****
 1  2  14  15  16  17  18  19  20  21  22  24  25  26 0
 3-21G
 ****
 31  33  36  37  38  39  40  41  42  43  44  45  46 0
 3-21G
 ****


