%nproc=1
%NoSave
%Mem=1900MB
#P OB98/GEN NMR

erre ene a

0 1
  C     -294.966     -82.813     149.034
  O     -295.425     -83.947     148.329
  H     -294.599     -82.057     148.334
  H     -295.799     -82.390     149.601
  H     -294.172     -83.095     149.730
  P     -294.347     -84.729     147.432
  C     -295.421     -83.296     145.546
  O     -294.241     -83.903     146.059
  C     -295.375     -83.294     144.022
  O     -294.419     -82.319     143.553
  C     -294.945     -84.621     143.405
  O     -296.014     -85.550     143.334
  C     -294.524     -84.159     142.020
  O     -295.690     -83.926     141.207
  C     -293.819     -82.834     142.333
  N     -289.307     -83.418     139.988
  C     -290.567     -83.333     139.511
  N     -291.715     -83.183     140.203
  C     -291.473     -83.119     141.523
  C     -290.244     -83.198     142.155
  C     -289.116     -83.347     141.326
  N     -287.832     -83.451     141.810
  N     -290.394     -83.131     143.528
  C     -291.691     -82.978     143.711
  N     -292.386     -82.974     142.530
  O     -295.117     -86.062     146.993
  O     -293.039     -85.015     148.091
  H     -295.373     -83.786     140.296
  H     -294.477     -86.748     146.728
  H     -290.666     -83.397     138.429
  H     -292.172     -82.866     144.676
  H     -293.966     -82.084     141.549
  H     -293.910     -84.893     141.493
  H     -294.076     -85.045     143.923
  H     -296.365     -82.996     143.651
  H     -295.482     -82.266     145.908
  H     -287.124     -83.738     141.153
  H     -287.699     -83.548     142.806
  H     -296.294     -83.852     145.900
  P     -295.795     -86.978     144.035
  C     -295.100     -87.931     141.714
  O     -294.771     -87.776     143.093
  O     -297.191     -87.722     143.786
  O     -295.434     -86.917     145.483
  H     -297.352     -88.394     144.476
  H     -294.325     -88.481     141.222
  H     -295.197     -86.967     141.260
  H     -296.025     -88.461     141.625

 6  7  8  9  10  11  12  13  14  15  25  28  32  33  34  35 0
 6-311+G(2d,p)
 ****
 36  39  40 0
 6-311+G(2d,p)
 ****
 1  2  3  4  5  16  17  18  19  20  21  22  23  24 0
 3-21G
 ****
 26  27  29  30  31  37  38  41  42  43  44  45  46  47 0
 3-21G
 ****
 48 0
 3-21G
 ****


