%nproc=1
%NoSave
%Mem=1900MB
#P OB98/GEN NMR

erre ene a

0 1
  C      542.382    -340.840    -582.498
  O      543.005    -340.625    -583.774
  P      544.190    -339.552    -583.859
  C      544.696    -340.428    -586.253
  O      544.534    -339.308    -585.402
  C      544.768    -339.989    -587.718
  O      543.455    -339.886    -588.312
  C      545.416    -338.623    -587.912
  O      546.828    -338.706    -587.926
  C      544.900    -338.247    -589.294
  O      545.690    -338.912    -590.302
  C      543.472    -338.799    -589.276
  N      540.880    -334.762    -590.881
  C      541.808    -335.546    -591.543
  N      542.082    -335.208    -592.821
  N      542.414    -336.573    -590.994
  C      542.029    -336.800    -589.720
  C      541.125    -336.094    -588.958
  C      540.474    -334.960    -589.567
  O      539.654    -334.223    -589.030
  N      541.003    -336.634    -587.703
  C      541.824    -337.668    -587.706
  N      542.481    -337.805    -588.903
  O      545.463    -340.383    -583.346
  O      543.971    -338.318    -583.045
  H      545.742    -339.852    -590.040
  H      546.116    -339.777    -582.942
  H      540.447    -333.984    -591.348
  H      541.967    -338.343    -586.873
  H      543.168    -339.209    -590.244
  H      544.981    -337.169    -589.497
  H      541.615    -334.458    -593.319
  H      545.052    -337.897    -587.162
  H      542.734    -335.790    -593.329
  H      545.343    -340.740    -588.276
  H      543.871    -341.134    -586.123
  H      545.600    -340.976    -585.961
  P      547.629    -338.256    -586.604
  C      549.872    -338.915    -587.729
  O      549.115    -337.917    -587.082
  O      547.775    -339.629    -585.802
  O      546.939    -337.208    -585.795
  H      547.774    -339.451    -584.834
  H      550.786    -338.464    -588.120
  H      549.312    -339.353    -588.563
  H      550.144    -339.705    -587.018
  H      541.614    -341.579    -582.596
  H      541.953    -339.923    -582.152
  H      543.115    -341.178    -581.796

 3  4  5  6  7  8  9  10  11  12  23  26  30  31 0
 6-311+G(2d,p)
 ****
 33  35  36  37  38 0
 6-311+G(2d,p)
 ****
 1  2  13  14  15  16  17  18  19  20  21  22  24  25 0
 3-21G
 ****
 27  28  29  32  34  39  40  41  42  43  44  45  46  47  48  49 0
 3-21G
 ****


