%nproc=1
%NoSave
%Mem=1900MB
#P OB98/GEN NMR

erre ene a

0 1
  C      112.356     -45.462       5.935
  O      111.308     -44.799       6.621
  P      111.310     -44.864       8.225
  C      108.729     -44.756       8.484
  O      109.977     -44.124       8.727
  C      107.647     -43.722       8.165
  O      107.571     -42.768       9.262
  C      107.891     -42.921       6.876
  O      106.605     -42.663       6.302
  C      108.520     -41.646       7.410
  O      108.503     -40.566       6.492
  C      107.702     -41.450       8.683
  N      108.396     -40.356      13.626
  C      107.774     -41.386      13.012
  N      107.636     -41.616      11.689
  C      108.236     -40.647      10.976
  C      108.892     -39.529      11.461
  C      108.963     -39.398      12.857
  N      109.593     -38.340      13.482
  N      109.355     -38.743      10.427
  C      108.984     -39.376       9.333
  N      108.324     -40.540       9.615
  O      112.470     -43.839       8.625
  O      111.541     -46.226       8.801
  H      109.077     -39.844       6.816
  H      112.985     -44.169       9.386
  H      107.326     -42.125      13.669
  H      109.154     -39.031       8.323
  H      106.694     -41.077       8.469
  H      109.571     -41.843       7.652
  H      108.509     -43.451       6.146
  H      106.681     -44.237       8.113
  H      108.421     -45.308       9.377
  H      109.417     -38.235      14.470
  H      109.825     -37.539      12.908
  H      108.838     -45.475       7.666
  P      106.058     -43.644       5.155
  C      105.727     -41.938       3.264
  O      105.099     -42.708       4.270
  O      104.992     -44.509       5.979
  O      107.088     -44.445       4.436
  H      104.381     -43.942       6.482
  H      104.955     -41.429       2.681
  H      106.307     -42.583       2.597
  H      106.378     -41.187       3.720
  H      112.228     -45.336       4.880
  H      112.335     -46.505       6.174
  H      113.296     -45.046       6.232

 3  4  5  6  7  8  9  10  11  12  22  25  29  30  31  32 0
 6-311+G(2d,p)
 ****
 33  36  37 0
 6-311+G(2d,p)
 ****
 1  2  13  14  15  16  17  18  19  20  21  23  24  26 0
 3-21G
 ****
 27  28  34  35  38  39  40  41  42  43  44  45  46  47  48 0
 3-21G
 ****


