%nproc=1
%NoSave
%Mem=1900MB
#P OB98/GEN NMR

erre ene a

0 1
  C      307.281    -290.728     455.384
  O      307.018    -291.840     454.549
  H      306.536    -290.701     456.180
  H      307.219    -289.803     454.807
  H      308.275    -290.816     455.833
  P      308.038    -292.077     453.334
  C      308.230    -291.142     450.906
  O      307.496    -291.175     452.124
  C      307.837    -289.911     450.081
  O      306.495    -290.117     449.551
  C      307.795    -288.607     450.899
  O      308.115    -287.509     450.029
  C      306.329    -288.527     451.284
  O      305.999    -287.226     451.714
  C      305.696    -288.993     449.981
  N      300.873    -287.396     449.524
  C      302.055    -286.809     449.216
  N      303.297    -287.309     449.360
  C      303.252    -288.556     449.859
  C      302.130    -289.279     450.218
  C      300.891    -288.644     450.039
  N      299.687    -289.225     450.373
  N      302.490    -290.523     450.713
  C      303.807    -290.545     450.644
  N      304.311    -289.380     450.126
  O      307.711    -293.574     452.870
  O      309.482    -291.896     453.655
  H      306.307    -286.556     451.075
  H      308.301    -294.201     453.324
  H      301.987    -285.806     448.800
  H      304.444    -291.363     450.957
  H      305.742    -288.231     449.193
  H      306.098    -289.214     452.107
  H      308.478    -288.611     451.755
  H      308.509    -289.821     449.222
  H      308.011    -292.057     450.345
  H      309.302    -291.102     451.127
  H      298.844    -288.691     450.240
  H      299.680    -290.147     450.795
  P      309.396    -286.593     450.363
  C      309.980    -284.487     451.789
  O      309.000    -285.447     451.419
  O      309.579    -285.760     449.005
  O      310.654    -287.341     450.679
  H      310.514    -285.757     448.747
  H      309.559    -283.801     452.494
  H      310.302    -283.953     450.920
  H      310.817    -284.985     452.232

 6  7  8  9  10  11  12  13  14  15  25  28  32  33  34  35 0
 6-311+G(2d,p)
 ****
 36  37  40 0
 6-311+G(2d,p)
 ****
 1  2  3  4  5  16  17  18  19  20  21  22  23  24 0
 3-21G
 ****
 26  27  29  30  31  38  39 41  42  43  44  45  46  47  48 0
 3-21G
 ****


