%nproc=1
%NoSave
%Mem=1900MB
#P OB98/GEN NMR

erre ene a

0 1
  C     -210.455    -124.475     168.845
  O     -210.024    -124.523     170.192
  H     -210.489    -123.430     168.526
  H     -211.456    -124.908     168.752
  H     -209.749    -125.015     168.207
  P     -209.938    -125.977     170.867
  C     -211.894    -125.166     172.361
  O     -211.387    -126.197     171.523
  C     -213.337    -124.840     171.994
  O     -213.384    -124.108     170.753
  C     -214.234    -126.060     171.808
  O     -214.715    -126.519     173.057
  C     -215.354    -125.473     170.957
  O     -216.285    -124.774     171.805
  C     -214.606    -124.469     170.058
  N     -214.203    -123.248     165.087
  C     -214.740    -122.584     166.132
  N     -214.864    -122.989     167.411
  C     -214.350    -124.222     167.578
  C     -213.772    -125.024     166.600
  C     -213.702    -124.487     165.303
  N     -213.155    -125.173     164.237
  N     -213.362    -126.231     167.133
  C     -213.634    -126.128     168.415
  N     -214.262    -124.948     168.731
  O     -208.764    -126.205     171.764
  O     -209.998    -126.918     169.573
  H     -216.924    -124.326     171.218
  H     -210.643    -126.576     168.931
  H     -215.127    -121.594     165.906
  H     -213.377    -126.868     169.168
  H     -215.189    -123.547     169.914
  H     -215.916    -126.236     170.424
  H     -213.724    -126.851     171.237
  H     -213.746    -124.180     172.775
  H     -211.273    -124.264     172.270
  H     -213.323    -124.795     163.318
  H     -212.904    -126.140     164.376
  H     -211.835    -125.519     173.399
  P     -214.369    -127.991     173.590
  C     -216.891    -128.480     173.418
  O     -215.579    -128.915     173.071
  O     -214.071    -128.071     175.048
  O     -213.144    -128.461     172.679
  H     -212.692    -129.228     173.093
  H     -217.610    -129.166     173.023
  H     -217.064    -127.507     173.009
  H     -216.984    -128.440     174.483

 6  7  8  9  10  11  12  13  14  15  25  28  32  33  34  35 0
 6-311+G(2d,p)
 ****
 36  39  40 0
 6-311+G(2d,p)
 ****
 1  2  3  4  5  16  17  18  19  20  21  22  23  24 0
 3-21G
 ****
 26  27  29  30  31  37  38  41  42  43  44  45  46  47 0
 3-21G
 ****
 48 0
 3-21G
 ****


