%nproc=1
%NoSave
%Mem=1900MB
#P OB98/GEN NMR

erre ene a

0 1
  C      454.868     137.174    -284.820
  O      453.860     136.600    -284.012
  H      455.837     137.007    -284.342
  H      454.703     138.251    -284.913
  H      454.877     136.710    -285.808
  P      452.356     136.655    -284.576
  C      451.933     134.128    -284.978
  O      451.668     135.261    -284.165
  C      451.383     132.854    -284.332
  O      452.259     132.484    -283.215
  C      449.960     132.986    -283.779
  O      449.292     131.737    -283.959
  C      450.192     133.188    -282.285
  O      449.045     132.857    -281.499
  C      451.395     132.274    -282.077
  N      455.031     130.617    -279.008
  C      454.606     130.139    -280.232
  N      455.241     129.054    -280.721
  N      453.630     130.680    -280.924
  C      453.111     131.783    -280.333
  C      453.435     132.352    -279.120
  C      454.490     131.722    -278.358
  O      454.902     132.086    -277.257
  N      452.648     133.442    -278.861
  C      451.847     133.540    -279.911
  N      452.088     132.551    -280.830
  O      452.574     136.518    -286.159
  O      451.584     137.881    -284.219
  H      448.292     133.386    -281.837
  H      452.621     137.402    -286.571
  H      455.773     130.152    -278.509
  H      451.082     134.289    -280.050
  H      451.113     131.213    -282.049
  H      450.453     134.235    -282.083
  H      456.026     128.608    -280.267
  H      449.367     133.791    -284.231
  H      454.974     128.719    -281.636
  H      451.447     132.037    -285.057
  H      453.017     134.025    -285.111
  H      451.469     134.274    -285.960
  P      447.712     131.751    -284.233
  C      447.663     130.273    -286.373
  O      447.322     130.398    -284.994
  O      447.563     132.864    -285.370
  O      446.885     132.078    -283.025
  H      446.679     133.280    -285.322
  H      447.338     129.320    -286.736
  H      448.724     130.356    -286.487
  H      447.183     131.049    -286.931

 6  7  8  9  10  11  12  13  14  15  26  29  33  34 0
 6-311+G(2d,p)
 ****
 36  38  39  40  41 0
 6-311+G(2d,p)
 ****
 1  2  3  4  5  16  17  18  19  20  21  22  23  24  25 0
 3-21G
 ****
 27  28  30  31  32  35  37  42  43  44  45  46  47 0
 3-21G
 ****
 48  49 0
 3-21G
 ****


