%nproc=1
%NoSave
%Mem=1900MB
#P OB98/GEN NMR

erre ene a

0 1
  C      -67.328    -326.251      74.790
  O      -66.531    -326.762      73.737
  P      -65.394    -325.847      73.078
  C      -63.602    -327.524      73.944
  O      -64.023    -326.181      73.838
  C      -62.135    -327.677      73.521
  O      -61.622    -328.886      74.132
  C      -61.915    -327.842      72.021
  O      -60.544    -327.557      71.729
  C      -62.178    -329.319      71.829
  O      -61.607    -329.816      70.622
  C      -61.610    -329.933      73.133
  N      -62.414    -331.083      73.585
  C      -62.001    -332.342      73.163
  O      -60.976    -332.529      72.510
  N      -62.855    -333.375      73.446
  C      -64.071    -333.251      74.052
  O      -64.941    -334.112      74.020
  C      -64.334    -331.948      74.681
  C      -63.518    -330.929      74.401
  O      -65.773    -324.382      73.597
  O      -65.324    -325.908      71.590
  H      -62.041    -330.681      70.436
  H      -66.294    -323.910      72.923
  H      -62.628    -334.262      73.013
  H      -65.216    -331.850      75.299
  H      -63.718    -329.943      74.809
  H      -60.576    -330.276      72.998
  H      -63.260    -329.486      71.775
  H      -62.570    -327.227      71.400
  H      -61.554    -326.831      73.907
  H      -64.248    -328.154      73.328
  H      -63.714    -327.876      74.976
  P      -60.052    -327.716      70.211
  C      -60.882    -325.341      69.702
  O      -60.941    -326.706      69.340
  O      -59.973    -329.114      69.693
  O      -58.615    -327.003      70.222
  H      -58.099    -327.294      69.449
  H      -61.060    -324.733      68.811
  H      -59.908    -325.079      70.123
  H      -61.662    -325.129      70.439
  H      -68.028    -326.998      75.102
  H      -67.857    -325.386      74.449
  H      -66.701    -325.984      75.615

 3  4  5  6  7  8  9  10  11  12  13  23  28  29  30  31  32 0
 6-311+G(2d,p)
 ****
 33  34 0
 6-311+G(2d,p)
 ****
 1  2  14  15  16  17  18  19  20  21  22  24  25  26  27 0
 3-21G
 ****
 35  36  37  38  39  40  41  42  43  44  45 0
 3-21G
 ****


