%nproc=1
%NoSave
%Mem=1900MB
#P OB98/GEN NMR

erre ene a

0 1
  C      -96.191      83.348      46.808
  O      -95.816      84.565      47.418
  P      -94.375      84.757      48.095
  C      -93.569      84.439      50.516
  O      -94.447      83.981      49.500
  C      -93.888      83.790      51.863
  O      -95.119      84.354      52.395
  C      -94.061      82.266      51.812
  O      -93.569      81.764      53.058
  C      -95.568      82.111      51.735
  O      -96.006      80.812      52.112
  C      -96.023      83.257      52.648
  N      -97.414      83.623      52.414
  C      -98.347      83.188      53.358
  O      -97.994      82.462      54.290
  N      -99.665      83.535      53.198
  C     -100.031      84.172      52.130
  N     -101.348      84.494      52.027
  C      -99.099      84.540      51.048
  C      -97.817      84.252      51.260
  O      -93.895      86.166      48.179
  O      -93.423      83.809      47.227
  H      -95.665      80.621      53.013
  H      -93.203      84.239      46.363
  H      -99.461      85.020      50.152
  H      -97.060      84.483      50.524
  H      -95.911      82.976      53.704
  H      -95.904      82.290      50.706
  H      -93.546      81.794      50.973
  H      -93.084      84.051      52.562
  H     -101.950      84.236      52.799
  H      -93.695      85.521      50.610
  H     -101.723      85.059      51.280
  H      -92.530      84.248      50.228
  P      -92.998      80.271      53.188
  C      -94.001      77.977      53.712
  O      -94.261      79.293      53.259
  O      -91.987      80.073      54.270
  O      -92.375      79.958      51.744
  H      -91.789      79.182      51.805
  H      -94.946      77.501      53.984
  H      -93.342      77.985      54.585
  H      -93.531      77.400      52.909
  H      -97.185      83.434      46.422
  H      -96.156      82.561      47.532
  H      -95.516      83.127      46.008

 3  4  5  6  7  8  9  10  11  12  13  23  27  28  29  30  32 0
 6-311+G(2d,p)
 ****
 34  35 0
 6-311+G(2d,p)
 ****
 1  2  14  15  16  17  18  19  20  21  22  24  25  26 0
 3-21G
 ****
 31  33  36  37  38  39  40  41  42  43  44  45  46 0
 3-21G
 ****


