%nproc=1
%NoSave
%Mem=1900MB
#P OB98/GEN NMR

erre ene a

0 1
  C       63.769    -183.446    -371.263
  O       64.199    -183.934    -370.011
  H       62.961    -184.084    -371.627
  H       64.588    -183.474    -371.986
  H       63.390    -182.425    -371.168
  P       65.392    -183.168    -369.257
  C       63.905    -181.706    -367.718
  O       64.750    -181.747    -368.856
  C       63.963    -180.328    -367.065
  O       65.237    -180.103    -366.424
  C       63.810    -179.156    -368.028
  O       62.487    -178.972    -368.503
  C       64.265    -178.019    -367.133
  O       63.224    -177.695    -366.195
  C       65.478    -178.668    -366.426
  N       66.746    -178.360    -367.086
  C       67.537    -177.371    -366.491
  O       67.164    -176.795    -365.470
  N       68.730    -177.029    -367.088
  C       69.084    -177.606    -368.195
  N       70.271    -177.222    -368.746
  C       68.271    -178.638    -368.864
  C       67.130    -178.963    -368.265
  O       66.694    -183.101    -369.988
  O       65.495    -183.887    -367.832
  H       62.490    -177.313    -366.709
  H       66.227    -183.456    -367.327
  H       68.598    -179.066    -369.801
  H       66.474    -179.712    -368.698
  H       65.538    -178.347    -365.380
  H       64.499    -177.106    -367.680
  H       64.515    -179.243    -368.865
  H       63.198    -180.304    -366.278
  H       70.804    -176.511    -368.262
  H       64.234    -182.483    -367.019
  H       70.589    -177.563    -369.641
  H       62.870    -181.906    -368.010
  P       62.314    -178.222    -369.913
  C       62.850    -180.551    -370.970
  O       63.041    -179.144    -371.003
  O       63.279    -176.955    -369.769
  O       60.913    -177.841    -370.263
  H       62.768    -176.158    -369.527
  H       63.405    -181.005    -371.764
  H       61.810    -180.773    -371.090
  H       63.191    -180.935    -370.031

 6  7  8  9  10  11  12  13  14  15  16  26  30  31  32  33  35 0
 6-311+G(2d,p)
 ****
 37  38 0
 6-311+G(2d,p)
 ****
 1  2  3  4  5  17  18  19  20  21  22  23  24  25 0
 3-21G
 ****
 27  28  29  34  36  39  40  41  42  43  44  45  46 0
 3-21G
 ****


