%nproc=1
%NoSave
%Mem=1900MB
#P OB98/GEN NMR

erre ene a

0 1
  C      119.110    -371.929    -896.344
  O      118.706    -370.664    -896.824
  H      120.200    -371.957    -896.234
  H      118.662    -372.089    -895.354
  H      118.778    -372.713    -897.014
  P      119.296    -370.212    -898.244
  C      119.315    -367.718    -897.514
  O      118.873    -368.669    -898.474
  C      119.321    -366.312    -898.124
  O      117.966    -365.795    -898.084
  C      120.237    -365.309    -897.414
  O      121.198    -364.777    -898.344
  C      119.305    -364.181    -896.994
  O      119.882    -362.882    -897.164
  C      118.076    -364.380    -897.864
  N      115.132    -360.242    -897.404
  C      116.013    -360.614    -898.364
  N      116.691    -361.776    -898.484
  C      116.357    -362.623    -897.484
  C      115.464    -362.395    -896.444
  C      114.847    -361.123    -896.414
  N      113.994    -360.733    -895.404
  N      115.399    -363.497    -895.604
  C      116.259    -364.348    -896.114
  N      116.887    -363.858    -897.224
  O      118.383    -371.009    -899.304
  O      120.751    -370.493    -898.454
  H      119.273    -362.251    -896.744
  H      118.950    -371.440    -899.964
  H      116.210    -359.871    -899.134
  H      116.516    -365.311    -895.674
  H      118.185    -363.889    -898.844
  H      119.073    -364.303    -895.924
  H      120.760    -365.732    -896.554
  H      119.595    -366.401    -899.184
  H      120.334    -367.967    -897.204
  H      113.692    -359.770    -895.394
  H      113.860    -361.347    -894.614
  H      118.654    -367.758    -896.634
  P      122.632    -364.368    -897.744
  C      123.178    -362.276    -899.204
  O      123.465    -363.648    -898.914
  O      123.382    -365.782    -897.584
  O      122.564    -363.638    -896.444
  H      124.048    -365.741    -896.874
  H      123.809    -361.940    -900.000
  H      123.357    -361.682    -898.332
  H      122.153    -362.180    -899.496

 6  7  8  9  10  11  12  13  14  15  25  28  32  33  34  35 0
 6-311+G(2d,p)
 ****
 36  39  40 0
 6-311+G(2d,p)
 ****
 1  2  3  4  5  16  17  18  19  20  21  22  23  24 0
 3-21G
 ****
 26  27  29  30  31  37  38  41  42  43  44  45  46  47  48 0
 3-21G
 ****


