%nproc=1
%NoSave
%Mem=1900MB
#P OB98/GEN NMR

erre ene a

0 1
  C      447.814     -80.388      91.711
  O      447.433     -79.391      92.638
  H      447.528     -81.367      92.106
  H      448.898     -80.371      91.569
  H      447.312     -80.233      90.752
  P      447.659     -77.865      92.201
  C      445.139     -77.533      91.633
  O      446.251     -77.121      92.415
  C      443.899     -76.738      92.044
  O      443.440     -77.228      93.331
  C      444.157     -75.234      92.187
  O      443.007     -74.514      91.737
  C      444.328     -75.054      93.686
  O      444.059     -73.733      94.137
  C      443.333     -76.092      94.218
  N      443.614     -76.485      95.597
  C      443.414     -75.529      96.589
  O      442.948     -74.407      96.397
  N      443.777     -75.907      97.855
  C      444.331     -77.103      98.213
  O      444.659     -77.374      99.362
  C      444.527     -78.069      97.120
  C      444.168     -77.717      95.881
  O      447.788     -77.951      90.609
  O      448.823     -77.179      92.835
  H      448.723     -78.074      90.347
  H      444.684     -73.127      93.687
  H      443.636     -75.227      98.588
  H      444.972     -79.022      97.365
  H      444.316     -78.400      95.052
  H      442.309     -75.714      94.144
  H      445.349     -75.313      93.983
  H      445.039     -74.901      91.638
  H      443.098     -76.933      91.317
  H      444.958     -78.599      91.800
  H      445.362     -77.369      90.574
  P      443.220     -73.431      90.571
  C      440.655     -73.590      90.089
  O      441.782     -72.761      90.323
  O      443.446     -74.376      89.301
  O      444.331     -72.478      90.858
  H      442.897     -75.181      89.316
  H      439.787     -72.980      89.945
  H      440.504     -74.233      90.931
  H      440.823     -74.182      89.214

 6  7  8  9  10  11  12  13  14  15  16  27  31  32  33  34  35 0
 6-311+G(2d,p)
 ****
 36  37 0
 6-311+G(2d,p)
 ****
 1  2  3  4  5  17  18  19  20  21  22  23  24  25 0
 3-21G
 ****
 26  28  29  30  38  39  40  41  42  43  44  45 0
 3-21G
 ****


