%nproc=1
%NoSave
%Mem=1900MB
#P OB98/GEN NMR

erre ene a

0 1
  C      363.453      75.457     143.773
  O      364.278      75.297     144.911
  H      363.769      76.352     143.233
  H      362.412      75.580     144.081
  H      363.543      74.592     143.107
  P      364.148      73.923     145.728
  C      366.425      72.819     145.116
  O      365.645      73.474     146.109
  C      367.913      72.972     145.436
  O      368.286      74.369     145.237
  C      368.285      72.602     146.877
  O      369.580      71.988     146.867
  C      368.381      73.950     147.570
  O      369.194      73.944     148.736
  C      368.949      74.813     146.438
  N      368.738      76.241     146.662
  C      369.306      76.804     147.803
  O      370.036      76.206     148.590
  N      368.997      78.122     148.026
  C      368.183      78.905     147.257
  O      367.927      80.076     147.525
  C      367.608      78.253     146.069
  C      367.906      76.976     145.833
  O      363.722      72.872     144.599
  O      363.196      73.945     146.878
  H      362.750      72.831     144.518
  H      368.735      73.389     149.407
  H      369.399      78.544     148.850
  H      366.950      78.840     145.443
  H      367.479      76.456     144.976
  H      370.021      74.617     146.311
  H      367.376      74.296     147.856
  H      367.564      71.936     147.370
  H      368.490      72.381     144.717
  H      366.220      73.266     144.141
  H      366.149      71.757     145.083
  P      369.708      70.523     147.514
  C      370.777      69.274     145.468
  O      370.950      69.830     146.766
  O      368.419      69.798     146.903
  O      369.777      70.548     149.004
  H      368.216      70.091     145.997
  H      371.704      68.860     145.131
  H      370.462      70.040     144.791
  H      370.035      68.504     145.506

 6  7  8  9  10  11  12  13  14  15  16  27  31  32  33  34  35 0
 6-311+G(2d,p)
 ****
 36  37 0
 6-311+G(2d,p)
 ****
 1  2  3  4  5  17  18  19  20  21  22  23  24  25 0
 3-21G
 ****
 26  28  29  30  38  39  40  41  42  43  44  45 0
 3-21G
 ****


