%nproc=1
%NoSave
%Mem=1900MB
#P OB98/GEN NMR

erre ene a

0 1
  C       -8.023      44.399      18.034
  O       -7.300      43.180      18.038
  P       -6.481      42.796      19.366
  C       -7.157      42.259      21.824
  O       -7.534      42.819      20.577
  C       -7.365      43.272      22.952
  O       -6.472      44.395      22.735
  C       -8.787      43.836      23.055
  O       -9.033      44.099      24.441
  C       -8.689      45.148      22.298
  O       -9.719      46.065      22.653
  C       -7.281      45.590      22.678
  N       -5.177      50.141      22.023
  C       -5.719      49.572      23.162
  N       -5.631      50.301      24.295
  N       -6.291      48.397      23.186
  C       -6.289      47.781      21.980
  C       -5.822      48.255      20.778
  C       -5.158      49.538      20.773
  O       -4.588      50.042      19.808
  N       -6.078      47.379      19.758
  C       -6.627      46.342      20.356
  N       -6.734      46.519      21.710
  O       -5.585      44.094      19.619
  O       -5.669      41.542      19.287
  H       -9.743      46.124      23.629
  H       -4.699      43.994      19.219
  H       -4.732      51.042      22.071
  H       -6.959      45.440      19.867
  H       -7.244      46.076      23.662
  H       -8.765      44.958      21.220
  H       -5.177      51.199      24.355
  H       -9.553      43.170      22.651
  H       -5.991      49.893      25.150
  H       -7.072      42.800      23.898
  H       -6.096      41.993      21.787
  H       -7.735      41.348      22.008
  P      -10.550      44.043      24.957
  C      -12.282      42.148      25.290
  O      -11.125      42.592      24.611
  O      -11.313      44.998      23.919
  O      -10.753      44.515      26.360
  H      -12.057      45.441      24.369
  H      -12.765      41.371      24.693
  H      -12.995      42.964      25.449
  H      -11.997      41.724      26.256
  H       -8.514      44.519      17.091
  H       -7.348      45.214      18.191
  H       -8.752      44.384      18.817

 3  4  5  6  7  8  9  10  11  12  23  26  30  31 0
 6-311+G(2d,p)
 ****
 33  35  36  37  38 0
 6-311+G(2d,p)
 ****
 1  2  13  14  15  16  17  18  19  20  21  22  24  25 0
 3-21G
 ****
 27  28  29  32  34  39  40  41  42  43  44  45  46  47  48  49 0
 3-21G
 ****


