%nproc=1
%NoSave
%Mem=1900MB
#P OB98/GEN NMR

erre ene a

0 1
  C      445.445    -292.136      41.130
  O      444.564    -291.498      40.224
  H      446.373    -292.380      40.604
  H      444.997    -293.059      41.503
  H      445.678    -291.467      41.963
  P      443.145    -291.039      40.810
  C      441.319    -292.305      39.446
  O      442.108    -291.136      39.588
  C      442.140    -293.434      38.805
  O      442.775    -294.205      39.868
  C      441.304    -294.424      37.977
  O      442.152    -294.960      36.944
  C      441.000    -295.506      38.995
  O      440.518    -296.671      38.376
  C      442.355    -295.581      39.695
  N      442.048    -300.123      42.042
  C      442.131    -299.786      40.733
  N      442.225    -298.556      40.188
  C      442.245    -297.611      41.142
  C      442.177    -297.794      42.513
  C      442.069    -299.122      42.965
  N      441.976    -299.466      44.292
  N      442.224    -296.578      43.172
  C      442.320    -295.677      42.220
  N      442.329    -296.252      40.976
  O      443.331    -289.466      41.033
  O      442.713    -291.738      42.056
  H      440.706    -297.464      38.926
  H      443.584    -289.289      41.960
  H      442.119    -300.617      40.037
  H      442.377    -294.605      42.365
  H      443.108    -296.083      39.072
  H      440.221    -295.178      39.693
  H      440.420    -293.968      37.522
  H      442.945    -292.992      38.209
  H      440.457    -292.068      38.810
  H      440.961    -292.628      40.427
  H      441.886    -300.442      44.532
  H      441.971    -298.732      44.991
  P      441.761    -294.711      35.401
  C      441.687    -297.232      34.692
  O      442.282    -295.952      34.531
  O      442.786    -293.554      34.979
  O      440.351    -294.283      35.153
  H      442.400    -293.011      34.268
  H      442.160    -297.931      34.034
  H      440.644    -297.173      34.459
  H      441.808    -297.557      35.704

 6  7  8  9  10  11  12  13  14  15  25  28  32  33  34  35 0
 6-311+G(2d,p)
 ****
 36  37  40 0
 6-311+G(2d,p)
 ****
 1  2  3  4  5  16  17  18  19  20  21  22  23  24 0
 3-21G
 ****
 26  27  29  30  31  38  39 41  42  43  44  45  46  47  48 0
 3-21G
 ****


