%nproc=1
%NoSave
%Mem=1900MB
#P OB98/GEN NMR

erre ene a

0 1
  C       59.694       4.336     152.812
  O       60.604       3.610     153.614
  H       59.424       5.257     153.333
  H       58.787       3.747     152.644
  H       60.153       4.592     151.853
  P       61.144       2.224     153.014
  C       59.362       1.017     154.474
  O       59.956       1.161     153.189
  C       58.139       0.111     154.375
  O       57.195       0.667     153.429
  C       58.448      -1.289     153.865
  O       58.999      -2.122     154.868
  C       57.073      -1.738     153.392
  O       56.285      -2.245     154.476
  C       56.465      -0.439     152.851
  N       54.904      -2.671     148.533
  C       54.615      -2.915     149.830
  N       55.064      -2.264     150.925
  C       55.872      -1.249     150.574
  C       56.252      -0.877     149.296
  C       55.728      -1.639     148.238
  N       56.040      -1.407     146.920
  N       57.124       0.192     149.340
  C       57.261       0.468     150.621
  N       56.520      -0.373     151.404
  O       62.231       1.762     154.095
  O       61.725       2.311     151.643
  H       55.393      -2.411     154.112
  H       63.125       1.983     153.772
  H       53.945      -3.748     150.014
  H       57.884       1.254     151.028
  H       55.413      -0.322     153.141
  H       57.158      -2.528     152.646
  H       59.117      -1.235     152.997
  H       57.652       0.071     155.358
  H       59.055       2.000     154.843
  H       60.101       0.593     155.160
  H       55.684      -2.035     146.218
  H       56.743      -0.713     146.697
  P       60.341      -2.924     154.515
  C       59.044      -4.931     153.470
  O       60.005      -3.898     153.289
  O       60.527      -3.921     155.754
  O       61.542      -2.064     154.310
  H       61.477      -4.033     155.950
  H       58.940      -5.485     152.560
  H       58.101      -4.499     153.734
  H       59.368      -5.586     154.251

 6  7  8  9  10  11  12  13  14  15  25  28  32  33  34  35 0
 6-311+G(2d,p)
 ****
 36  37  40 0
 6-311+G(2d,p)
 ****
 1  2  3  4  5  16  17  18  19  20  21  22  23  24 0
 3-21G
 ****
 26  27  29  30  31  38  39 41  42  43  44  45  46  47  48 0
 3-21G
 ****


