%nproc=1
%NoSave
%Mem=1900MB
#P OB98/GEN NMR

erre ene a

0 1
  C     -449.540     260.655     781.906
  O     -450.262     259.428     781.889
  P     -449.429     258.071     781.698
  C     -450.945     256.931     783.506
  O     -450.392     256.890     782.199
  C     -451.590     255.584     783.864
  O     -452.826     255.414     783.121
  C     -450.733     254.380     783.492
  O     -449.656     254.221     784.403
  C     -451.770     253.280     783.527
  O     -452.025     252.851     784.877
  C     -453.015     253.992     782.965
  N     -453.305     253.649     781.568
  C     -453.827     252.367     781.354
  O     -454.017     251.564     782.262
  N     -454.101     252.044     780.055
  C     -453.892     252.845     778.967
  O     -454.176     252.514     777.831
  C     -453.294     254.163     779.252
  C     -453.035     254.502     780.521
  O     -448.340     258.216     782.860
  O     -448.874     257.918     780.324
  H     -448.691     258.662     783.663
  H     -452.305     253.644     785.368
  H     -454.502     251.134     779.882
  H     -453.083     254.815     778.415
  H     -452.573     255.467     780.756
  H     -453.895     253.738     783.566
  H     -451.459     252.392     782.950
  H     -450.333     254.485     782.478
  H     -451.814     255.583     784.926
  H     -451.703     257.719     783.578
  H     -450.152     257.192     784.220
  P     -448.281     254.987     784.040
  C     -447.689     255.398     786.570
  O     -447.328     254.815     785.334
  O     -448.755     256.509     784.115
  O     -447.685     254.567     782.748
  H     -449.313     256.713     784.879
  H     -447.126     254.902     787.361
  H     -448.752     255.270     786.762
  H     -447.437     256.464     786.569
  H     -450.222     261.468     782.040
  H     -449.019     260.775     780.979
  H     -448.836     260.644     782.712

 3  4  5  6  7  8  9  10  11  12  13  24  28  29  30  31  32 0
 6-311+G(2d,p)
 ****
 33  34 0
 6-311+G(2d,p)
 ****
 1  2  14  15  16  17  18  19  20  21  22  23  25  26  27 0
 3-21G
 ****
 35  36  37  38  39  40  41  42  43  44  45 0
 3-21G
 ****


