%nproc=1
%NoSave
%Mem=1900MB
#P OB98/GEN NMR

erre ene a

0 1
  C      246.572     156.756     521.418
  O      245.199     156.815     521.067
  P      244.423     158.195     521.347
  C      244.218     159.166     518.949
  O      244.908     159.201     520.193
  C      243.983     160.576     518.427
  O      243.162     161.309     519.353
  C      245.248     161.408     518.259
  O      245.923     161.105     517.047
  C      244.672     162.816     518.228
  O      244.183     163.111     516.909
  C      243.501     162.714     519.223
  N      241.581     164.873     523.379
  C      240.945     164.452     522.228
  N      239.605     164.606     522.188
  N      241.572     163.931     521.204
  C      242.901     163.802     521.401
  C      243.646     164.185     522.495
  C      242.949     164.805     523.600
  O      243.465     165.259     524.618
  N      244.974     163.877     522.330
  C      245.027     163.281     521.158
  N      243.802     163.237     520.539
  O      245.149     158.761     522.655
  O      242.950     158.067     521.535
  H      243.452     162.488     516.728
  H      244.543     159.354     523.142
  H      241.050     165.251     524.144
  H      245.926     162.868     520.718
  H      242.608     163.225     518.841
  H      245.410     163.586     518.478
  H      239.056     164.878     522.991
  H      245.908     161.299     519.126
  H      239.117     164.268     521.367
  H      243.441     160.506     517.475
  H      243.249     158.673     519.085
  H      244.809     158.582     518.233
  P      247.488     161.470     516.989
  C      247.763     160.069     519.159
  O      248.017     161.289     518.491
  O      247.487     163.055     516.763
  O      248.247     160.750     515.927
  H      248.312     163.332     516.319
  H      247.816     159.218     518.473
  H      246.772     160.107     519.616
  H      248.513     159.934     519.942
  H      246.960     155.788     521.179
  H      246.680     156.934     522.467
  H      247.112     157.501     520.872

 3  4  5  6  7  8  9  10  11  12  23  26  30  31  33  0
 6-311+G(2d,p)
 ****
 35  36  37  38 0
 6-311+G(2d,p)
 ****
 1  2  13  14  15  16  17  18  19  20  21  22  24  25  27  28  29 0
 3-21G
 ****
 32  34  39  40  41  42  43  44  45  46  47  48  49 0
 3-21G
 ****


