%nproc=1
%NoSave
%Mem=1900MB
#P OB98/GEN NMR

erre ene a

0 1
  C      474.888     140.005     439.252
  O      474.965     141.409     439.406
  P      473.763     142.284     438.799
  C      475.417     143.694     437.363
  O      474.265     142.856     437.392
  C      475.225     144.819     436.346
  O      474.747     144.281     435.096
  C      474.207     145.872     436.756
  O      474.733     146.745     437.737
  C      473.923     146.521     435.406
  O      474.977     147.439     435.071
  C      473.949     145.312     434.452
  N      469.971     145.476     431.228
  C      471.140     146.154     431.257
  N      472.139     146.071     432.158
  C      471.846     145.167     433.111
  C      470.689     144.419     433.228
  C      469.720     144.590     432.230
  N      468.528     143.902     432.213
  N      470.736     143.618     434.348
  C      471.909     143.870     434.891
  N      472.624     144.792     434.170
  O      473.746     143.582     439.739
  O      472.437     141.593     438.772
  H      475.800     146.916     434.979
  H      472.834     143.910     439.861
  H      471.294     146.861     430.438
  H      472.290     143.413     435.796
  H      474.421     145.544     433.493
  H      472.984     147.081     435.388
  H      473.294     145.396     437.139
  H      476.202     145.283     436.169
  H      476.293     143.106     437.072
  H      467.830     144.192     431.547
  H      468.284     143.352     433.031
  H      475.590     144.096     438.364
  P      473.736     147.258     438.887
  C      473.635     149.689     438.091
  O      472.937     148.465     438.195
  O      474.735     148.009     439.878
  O      472.894     146.182     439.502
  H      475.322     148.625     439.402
  H      473.002     150.407     437.560
  H      474.567     149.553     437.524
  H      473.860     150.087     439.081
  H      475.747     139.550     439.699
  H      474.857     139.762     438.211
  H      474.002     139.642     439.730

 3  4  5  6  7  8  9  10  11  12  22  25  29  30  31  32 0
 6-311+G(2d,p)
 ****
 33  36  37 0
 6-311+G(2d,p)
 ****
 1  2  13  14  15  16  17  18  19  20  21  23  24  26 0
 3-21G
 ****
 27  28  34  35  38  39  40  41  42  43  44  45  46  47  48 0
 3-21G
 ****


