%nproc=1
%NoSave
%Mem=1900MB
#P OB98/GEN NMR

erre ene a

0 1
  C      -63.736    -161.178      17.396
  O      -63.583    -162.571      17.232
  H      -62.763    -160.701      17.258
  H      -64.093    -160.963      18.408
  H      -64.435    -160.767      16.665
  P      -64.889    -163.471      17.026
  C      -65.784    -164.024      19.382
  O      -65.873    -163.166      18.255
  C      -66.932    -163.766      20.366
  O      -68.179    -164.211      19.782
  C      -66.727    -164.577      21.649
  O      -67.315    -163.946      22.783
  C      -67.473    -165.868      21.354
  O      -67.848    -166.577      22.531
  C      -68.651    -165.343      20.536
  N      -72.005    -169.127      19.917
  C      -71.651    -168.454      21.069
  N      -72.254    -168.855      22.210
  N      -70.774    -167.485      21.101
  C      -70.196    -167.240      19.900
  C      -70.445    -167.857      18.695
  C      -71.448    -168.900      18.666
  O      -71.788    -169.544      17.678
  N      -69.650    -167.351      17.699
  C      -68.916    -166.436      18.298
  N      -69.221    -166.321      19.633
  O      -64.382    -164.957      17.349
  O      -65.525    -163.392      15.671
  H      -68.418    -167.320      22.257
  H      -64.943    -165.612      16.899
  H      -72.698    -169.855      19.946
  H      -68.159    -165.829      17.816
  H      -69.457    -164.996      21.196
  H      -66.812    -166.523      20.778
  H      -72.797    -169.704      22.262
  H      -65.672    -164.761      21.853
  H      -71.801    -168.584      23.086
  H      -67.034    -162.692      20.557
  H      -64.824    -163.822      19.867
  H      -65.778    -165.069      19.064
  P      -66.577    -162.654      23.377
  C      -64.752    -164.127      24.551
  O      -65.055    -163.055      23.678
  O      -67.233    -162.480      24.824
  O      -66.738    -161.432      22.537
  H      -67.858    -161.733      24.824
  H      -63.690    -164.239      24.623
  H      -65.181    -165.030      24.169
  H      -65.156    -163.923      25.520

 6  7  8  9  10  11  12  13  14  15  26  29  33  34 0
 6-311+G(2d,p)
 ****
 36  38  39  40  41 0
 6-311+G(2d,p)
 ****
 1  2  3  4  5  16  17  18  19  20  21  22  23  24  25 0
 3-21G
 ****
 27  28  30  31  32  35  37  42  43  44  45  46  47 0
 3-21G
 ****
 48  49 0
 3-21G
 ****


