%nproc=1
%NoSave
%Mem=1900MB
#P OB98/GEN NMR

erre ene a

0 1
  C     -692.065     -81.112     -47.104
  O     -691.266     -82.011     -46.361
  H     -692.632     -81.675     -47.846
  H     -691.429     -80.390     -47.625
  H     -692.768     -80.588     -46.447
  P     -690.524     -81.434     -45.059
  C     -692.066     -82.830     -43.499
  O     -691.570     -81.547     -43.850
  C     -693.161     -82.700     -42.443
  O     -694.147     -81.738     -42.912
  C     -693.906     -84.017     -42.149
  O     -694.230     -84.045     -40.751
  C     -695.186     -83.869     -42.950
  O     -696.255     -84.673     -42.474
  C     -695.441     -82.367     -42.820
  N     -696.351     -81.861     -43.842
  C     -697.685     -81.666     -43.475
  O     -698.129     -81.808     -42.341
  N     -698.530     -81.291     -44.498
  C     -698.183     -81.118     -45.811
  O     -698.986     -80.798     -46.678
  C     -696.765     -81.344     -46.129
  C     -695.935     -81.703     -45.149
  O     -690.459     -79.862     -45.351
  O     -689.177     -82.019     -44.777
  H     -689.638     -79.637     -45.826
  H     -696.982     -84.608     -43.119
  H     -699.498     -81.156     -44.247
  H     -696.456     -81.228     -47.157
  H     -694.884     -81.892     -45.361
  H     -695.850     -82.135     -41.819
  H     -695.000     -84.143     -43.999
  H     -693.346     -84.915     -42.415
  H     -692.721     -82.288     -41.530
  H     -691.247     -83.437     -43.093
  H     -692.457     -83.321     -44.399
  P     -693.283     -84.926     -39.796
  C     -692.279     -82.870     -38.527
  O     -692.056     -83.969     -39.395
  O     -692.656     -85.959     -40.846
  O     -694.026     -85.549     -38.657
  H     -692.501     -85.567     -41.716
  H     -691.359     -82.347     -38.370
  H     -692.651     -83.226     -37.589
  H     -692.995     -82.208     -38.967

 6  7  8  9  10  11  12  13  14  15  16  27  31  32  33  34  35 0
 6-311+G(2d,p)
 ****
 36  37 0
 6-311+G(2d,p)
 ****
 1  2  3  4  5  17  18  19  20  21  22  23  24  25 0
 3-21G
 ****
 26  28  29  30  38  39  40  41  42  43  44  45 0
 3-21G
 ****


