%nproc=1
%NoSave
%Mem=1900MB
#P OB98/GEN NMR

erre ene a

0 1
  C      -33.920     281.067      79.557
  O      -32.634     280.508      79.352
  P      -31.393     281.516      79.235
  C      -30.645     283.298      77.485
  O      -31.427     282.147      77.762
  C      -30.463     283.447      75.972
  O      -29.766     282.305      75.435
  C      -31.778     283.527      75.207
  O      -32.349     284.819      75.291
  C      -31.335     283.146      73.798
  O      -30.797     284.287      73.105
  C      -30.226     282.110      74.079
  N      -30.673     280.740      73.849
  C      -30.863     280.377      72.518
  O      -30.690     281.159      71.582
  N      -31.293     279.097      72.299
  C      -31.603     278.178      73.265
  O      -32.040     277.062      73.008
  C      -31.411     278.629      74.652
  C      -30.970     279.865      74.880
  O      -30.119     280.547      79.206
  O      -31.305     282.522      80.334
  H      -31.466     284.997      73.177
  H      -29.372     280.971      79.676
  H      -31.412     278.806      71.343
  H      -31.646     277.925      75.442
  H      -30.837     280.220      75.894
  H      -29.359     282.304      73.434
  H      -32.163     282.764      73.193
  H      -32.476     282.763      75.579
  H      -29.853     284.340      75.781
  H      -29.669     283.197      77.968
  H      -31.146     284.179      77.899
  P      -33.956     284.907      75.231
  C      -35.692     284.491      73.320
  O      -34.335     284.561      73.715
  O      -34.171     286.487      75.367
  O      -34.626     284.093      76.288
  H      -33.447     286.996      74.958
  H      -36.300     285.233      73.851
  H      -36.077     283.491      73.522
  H      -35.756     284.687      72.247
  H      -34.645     280.282      79.615
  H      -34.161     281.716      78.741
  H      -33.925     281.625      80.470

 3  4  5  6  7  8  9  10  11  12  13  23  28  29  30  31  32 0
 6-311+G(2d,p)
 ****
 33  34 0
 6-311+G(2d,p)
 ****
 1  2  14  15  16  17  18  19  20  21  22  24  25  26 0
 3-21G
 ****
 27  35  36  37  38  39  40  41  42  43  44  45 0
 3-21G
 ****


