%nproc=1
%NoSave
%Mem=1900MB
#P OB98/GEN NMR

erre ene a

0 1
  C      709.056     373.196      75.011
  O      710.040     372.420      74.356
  H      709.560     373.921      75.657
  H      708.421     372.557      75.629
  H      708.444     373.741      74.288
  P      709.576     371.381      73.228
  C      711.123     369.586      74.252
  O      710.751     370.301      73.076
  C      711.504     368.151      73.883
  O      710.346     367.436      73.396
  C      712.545     368.056      72.773
  O      713.839     368.350      73.258
  C      712.348     366.619      72.315
  O      713.028     365.708      73.191
  C      710.813     366.456      72.434
  N      710.124     366.605      71.154
  C      710.195     365.525      70.283
  O      710.821     364.496      70.540
  N      709.538     365.673      69.091
  C      708.933     366.814      68.648
  O      708.441     366.926      67.529
  C      708.919     367.937      69.592
  C      709.501     367.780      70.785
  O      709.105     371.982      71.945
  O      708.412     370.542      73.943
  H      712.995     364.833      72.759
  H      707.548     370.829      73.598
  H      709.587     364.901      68.441
  H      708.434     368.850      69.284
  H      709.501     368.603      71.496
  H      710.566     365.474      72.848
  H      712.729     366.445      71.309
  H      712.280     368.728      71.945
  H      711.853     367.643      74.792
  H      710.271     369.570      74.938
  H      711.963     370.097      74.730
  P      714.482     369.793      72.992
  C      716.368     369.195      71.337
  O      716.040     369.583      72.676
  O      714.176     370.830      74.016
  O      713.880     370.214      71.567
  H      713.367     371.040      71.665
  H      717.429     369.086      71.247
  H      716.027     369.946      70.655
  H      715.893     368.264      71.109

 6  7  8  9  10  11  12  13  14  15  16  26  31  32  33  34  35 0
 6-311+G(2d,p)
 ****
 36  37 0
 6-311+G(2d,p)
 ****
 1  2  3  4  5  17  18  19  20  21  22  23  24  25 0
 3-21G
 ****
 27  28  29  30  38  39  40  41  42  43  44  45 0
 3-21G
 ****


