%nproc=1
%NoSave
%Mem=1900MB
#P OB98/GEN NMR

erre ene a

0 1
  C     -446.313    -536.939    -383.384
  O     -445.446    -535.878    -383.799
  P     -443.859    -536.020    -383.904
  C     -443.254    -534.650    -386.011
  O     -443.269    -534.687    -384.590
  C     -443.403    -533.214    -386.522
  O     -444.535    -532.566    -385.884
  C     -442.236    -532.279    -386.203
  O     -441.100    -532.557    -387.001
  C     -442.864    -530.908    -386.447
  O     -442.814    -530.550    -387.831
  C     -444.327    -531.146    -386.005
  N     -444.661    -530.445    -384.774
  C     -444.634    -529.053    -384.807
  O     -444.255    -528.463    -385.821
  N     -445.031    -528.355    -383.685
  C     -445.308    -529.004    -382.596
  N     -445.714    -528.261    -381.525
  C     -445.227    -530.464    -382.465
  C     -444.903    -531.125    -383.589
  O     -443.397    -537.287    -384.564
  O     -443.329    -535.938    -382.383
  H     -442.474    -536.413    -382.317
  H     -443.107    -529.617    -387.888
  H     -445.440    -530.967    -381.534
  H     -444.820    -532.208    -383.599
  H     -445.003    -530.813    -386.802
  H     -442.351    -530.120    -385.882
  H     -441.973    -532.383    -385.132
  H     -443.577    -533.240    -387.603
  H     -445.773    -527.261    -381.639
  H     -444.096    -535.246    -386.387
  H     -445.987    -528.668    -380.632
  H     -442.317    -535.098    -386.374
  P     -439.870    -533.310    -386.278
  C     -439.252    -534.317    -388.617
  O     -438.807    -533.685    -387.434
  O     -440.492    -534.734    -385.877
  O     -439.304    -532.603    -385.101
  H     -440.145    -535.003    -385.008
  H     -438.566    -534.067    -389.424
  H     -440.254    -533.995    -388.883
  H     -439.232    -535.403    -388.463
  H     -447.327    -536.597    -383.396
  H     -446.052    -537.246    -382.393
  H     -446.208    -537.767    -384.053

 3  4  5  6  7  8  9  10  11  12  13  24  27  28  29  30  32 0
 6-311+G(2d,p)
 ****
 34  35 0
 6-311+G(2d,p)
 ****
 1  2  14  15  16  17  18  19  20  21  22  23  25  26 0
 3-21G
 ****
 31  33  36  37  38  39  40  41  42  43  44  45  46 0
 3-21G
 ****


