%nproc=1
%NoSave
%Mem=1900MB
#P OB98/GEN NMR

erre ene a

0 1
  C      488.734     785.697     135.115
  O      488.151     784.672     135.932
  P      488.911     783.266     136.110
  C      486.944     781.584     136.353
  O      488.002     782.293     137.010
  C      486.502     780.379     137.212
  O      487.629     779.513     137.502
  C      485.965     780.798     138.570
  O      484.706     781.455     138.583
  C      486.067     779.507     139.358
  O      484.958     778.644     139.124
  C      487.366     778.898     138.783
  N      488.517     779.038     139.690
  C      488.515     778.233     140.821
  O      487.598     777.476     141.099
  N      489.605     778.376     141.649
  C      490.635     779.241     141.472
  O      491.583     779.327     142.254
  C      490.577     780.073     140.264
  C      489.533     779.944     139.439
  O      490.341     783.353     136.511
  O      488.764     782.612     134.644
  H      484.143     779.122     139.409
  H      489.609     782.170     134.434
  H      489.621     777.787     142.476
  H      491.388     780.781     140.098
  H      489.458     780.551     138.553
  H      487.240     777.823     138.594
  H      486.090     779.694     140.442
  H      486.673     781.496     139.031
  H      485.767     779.800     136.636
  H      487.275     781.248     135.378
  H      486.106     782.276     136.187
  P      484.551     783.021     138.928
  C      482.326     782.875     140.270
  O      482.989     783.340     139.097
  O      485.368     783.977     138.124
  O      485.059     783.060     140.451
  H      485.497     783.920     140.617
  H      481.270     783.173     140.203
  H      482.777     783.332     141.151
  H      482.379     781.794     140.332
  H      488.096     786.556     135.111
  H      488.849     785.334     134.115
  H      489.692     785.966     135.509

 3  4  5  6  7  8  9  10  11  12  13  23  28  29  30  31  32 0
 6-311+G(2d,p)
 ****
 33  34 0
 6-311+G(2d,p)
 ****
 1  2  14  15  16  17  18  19  20  21  22  24  25  26  27 0
 3-21G
 ****
 35  36  37  38  39  40  41  42  43  44  45 0
 3-21G
 ****


