%nproc=1
%NoSave
%Mem=1900MB
#P OB98/GEN NMR

erre ene a

0 1
  C     -121.687      90.964     -90.005
  O     -122.556      90.314     -90.919
  P     -121.891      89.517     -92.142
  C     -122.569      87.270     -91.055
  O     -121.512      88.059     -91.584
  C     -122.356      85.795     -91.371
  O     -123.399      85.019     -90.719
  C     -122.398      85.457     -92.870
  O     -121.338      84.540     -93.177
  C     -123.711      84.710     -93.028
  O     -123.693      83.829     -94.146
  C     -123.800      84.013     -91.670
  N     -126.899      80.066     -92.222
  C     -125.545      80.165     -92.469
  N     -124.946      79.071     -92.990
  N     -124.839      81.239     -92.231
  C     -125.562      82.244     -91.680
  C     -126.906      82.263     -91.382
  C     -127.684      81.088     -91.707
  O     -128.903      80.970     -91.597
  N     -127.273      83.458     -90.817
  C     -126.160      84.162     -90.778
  N     -125.102      83.486     -91.336
  O     -120.473      90.240     -92.310
  O     -122.664      89.542     -93.415
  H     -123.082      83.100     -93.926
  H     -120.375      90.568     -93.225
  H     -127.397      79.221     -92.442
  H     -126.077      85.169     -90.389
  H     -123.080      83.186     -91.616
  H     -124.522      85.434     -93.166
  H     -125.422      78.201     -93.164
  H     -122.335      86.328     -93.528
  H     -123.949      79.117     -93.157
  H     -121.402      85.478     -90.930
  H     -123.517      87.598     -91.495
  H     -122.614      87.420     -89.972
  P     -120.517      84.842     -94.524
  C     -118.913      86.402     -93.191
  O     -119.794      86.249     -94.288
  O     -121.664      85.175     -95.589
  O     -119.638      83.718     -94.962
  H     -121.349      84.999     -96.495
  H     -118.699      85.448     -92.700
  H     -119.365      87.079     -92.464
  H     -117.975      86.834     -93.546
  H     -122.265      91.451     -89.248
  H     -121.099      91.690     -90.527
  H     -121.041      90.241     -89.551

 3  4  5  6  7  8  9  10  11  12  23  26  30  31  33  0
 6-311+G(2d,p)
 ****
 35  36  37  38 0
 6-311+G(2d,p)
 ****
 1  2  13  14  15  16  17  18  19  20  21  22  24  25  27  28  29 0
 3-21G
 ****
 32  34  39  40  41  42  43  44  45  46  47  48  49 0
 3-21G
 ****


