%nproc=1
%NoSave
%Mem=1900MB
#P OB98/GEN NMR

erre ene a

0 1
  C      413.814     628.704    -210.334
  O      412.730     629.076    -209.490
  P      412.361     630.637    -209.405
  C      412.686     631.736    -207.072
  O      413.302     631.250    -208.257
  C      412.233     630.574    -206.180
  O      413.382     629.855    -205.697
  C      411.457     631.001    -204.948
  O      410.126     631.326    -205.282
  C      411.591     629.753    -204.073
  O      410.555     628.803    -204.375
  C      412.985     629.203    -204.462
  N      413.971     629.395    -203.421
  C      413.763     628.657    -202.247
  O      412.769     627.926    -202.140
  N      414.647     628.805    -201.205
  C      415.658     629.623    -201.335
  N      416.507     629.719    -200.273
  C      415.898     630.424    -202.541
  C      415.025     630.279    -203.538
  O      410.909     630.630    -208.738
  O      412.388     631.360    -210.720
  H      409.779     629.080    -203.833
  H      410.406     631.428    -208.992
  H      416.752     631.086    -202.593
  H      415.125     630.830    -204.454
  H      412.918     628.125    -204.680
  H      411.493     629.988    -203.008
  H      411.953     631.843    -204.458
  H      411.634     629.879    -206.791
  H      416.323     629.153    -199.449
  H      411.808     632.339    -207.332
  H      417.329     630.304    -200.276
  H      413.399     632.371    -206.537
  P      409.190     631.929    -204.130
  C      406.992     630.646    -203.770
  O      408.395     630.670    -203.542
  O      408.057     632.683    -204.974
  O      409.842     632.828    -203.129
  H      407.476     633.175    -204.362
  H      406.615     629.670    -203.470
  H      406.776     630.794    -204.836
  H      406.515     631.420    -203.168
  H      413.948     627.643    -210.295
  H      414.708     629.189    -210.001
  H      413.601     629.000    -211.340

 3  4  5  6  7  8  9  10  11  12  13  21  23  27  28  29  30  32 0
 6-311+G(2d,p)
 ****
 34  35 0
 6-311+G(2d,p)
 ****
 1  2  14  15  16  17  18  19  20  22  24  25  26 0
 3-21G
 ****
 31  33  36  37  38  39  40  41  42  43  44  45  46 0
 3-21G
 ****


