%nproc=1
%NoSave
%Mem=1900MB
#P OB98/GEN NMR

erre ene a

0 1
  C      -64.921    -197.303     156.394
  O      -65.054    -198.709     156.501
  H      -65.701    -196.831     157.001
  H      -65.048    -196.991     155.354
  H      -63.944    -196.987     156.766
  P      -63.980    -199.590     155.696
  C      -66.057    -200.451     154.414
  O      -64.843    -200.788     155.073
  C      -66.712    -201.698     153.826
  O      -68.007    -201.383     153.285
  C      -65.930    -202.341     152.685
  O      -64.877    -203.148     153.186
  C      -67.021    -203.178     152.031
  O      -67.216    -204.393     152.782
  C      -68.264    -202.276     152.165
  N      -70.330    -202.294     147.465
  C      -70.019    -203.299     148.314
  N      -69.431    -203.222     149.528
  C      -69.163    -201.947     149.848
  C      -69.422    -200.818     149.086
  C      -70.044    -201.024     147.844
  N      -70.371    -199.995     146.985
  N      -69.002    -199.677     149.740
  C      -68.547    -200.107     150.898
  N      -68.588    -201.475     150.999
  O      -62.760    -199.979     156.459
  O      -63.717    -198.658     154.421
  H      -67.764    -204.989     152.238
  H      -64.544    -198.237     154.127
  H      -70.276    -204.297     147.972
  H      -68.195    -199.469     151.703
  H      -69.162    -202.855     152.407
  H      -66.764    -203.471     151.012
  H      -65.579    -201.591     151.970
  H      -66.866    -202.413     154.647
  H      -65.866    -199.718     153.617
  H      -70.654    -200.242     146.051
  H      -70.046    -199.067     147.213
  H      -66.717    -199.991     155.155
  P      -63.346    -202.717     152.970
  C      -63.614    -202.081     150.493
  O      -63.015    -202.978     151.420
  O      -62.378    -203.330     153.921
  O      -63.358    -201.122     153.075
  H      -62.556    -200.807     153.539
  H      -63.325    -202.350     149.499
  H      -63.289    -201.083     150.701
  H      -64.679    -202.135     150.582

 6  7  8  9  10  11  12  13  14  15  25  28  32  33  34  35 0
 6-311+G(2d,p)
 ****
 36  39  40 0
 6-311+G(2d,p)
 ****
 1  2  3  4  5  16  17  18  19  20  21  22  23  24 0
 3-21G
 ****
 26  27  29  30  31  37  38  41  42  43  44  45  46  47 0
 3-21G
 ****
 48 0
 3-21G
 ****


