%nproc=1
%NoSave
%Mem=1900MB
#P OB98/GEN NMR

erre ene a

0 1
  C      148.298    -382.672    -204.144
  O      148.563    -381.468    -203.410
  P      149.839    -380.590    -203.836
  C      148.532    -378.815    -205.219
  O      149.497    -379.861    -205.219
  C      149.207    -377.462    -205.455
  O      149.621    -377.302    -206.830
  C      148.313    -376.274    -205.137
  O      148.305    -375.967    -203.745
  C      149.022    -375.164    -205.903
  O      150.158    -374.693    -205.146
  C      149.491    -375.894    -207.167
  N      148.525    -373.296    -211.401
  C      149.572    -373.184    -210.510
  N      150.507    -372.248    -210.791
  N      149.701    -373.926    -209.434
  C      148.703    -374.834    -209.296
  C      147.607    -375.035    -210.113
  C      147.478    -374.206    -211.281
  O      146.563    -374.245    -212.105
  N      146.816    -376.039    -209.631
  C      147.427    -376.460    -208.539
  N      148.571    -375.746    -208.283
  O      150.906    -381.706    -204.282
  O      150.378    -379.719    -202.751
  H      149.840    -374.516    -204.240
  H      151.808    -381.373    -204.141
  H      148.475    -372.700    -212.209
  H      147.088    -377.273    -207.913
  H      150.477    -375.551    -207.513
  H      148.376    -374.297    -206.082
  H      150.503    -371.679    -211.621
  H      147.304    -376.417    -205.537
  H      151.306    -372.171    -210.166
  H      150.106    -377.415    -204.815
  H      147.991    -378.802    -204.269
  H      147.786    -379.026    -205.992
  P      146.901    -375.590    -203.070
  C      145.869    -377.979    -203.090
  O      145.847    -376.662    -203.621
  O      146.499    -374.231    -203.816
  O      146.945    -375.418    -201.594
  H      145.980    -373.660    -203.220
  H      144.990    -378.518    -203.452
  H      145.845    -377.954    -201.998
  H      146.771    -378.499    -203.433
  H      147.424    -383.145    -203.749
  H      149.133    -383.335    -204.056
  H      148.139    -382.434    -205.175

 3  4  5  6  7  8  9  10  11  12  23  26  30  31 0
 6-311+G(2d,p)
 ****
 33  35  36  37  38 0
 6-311+G(2d,p)
 ****
 1  2  13  14  15  16  17  18  19  20  21  22  24  25 0
 3-21G
 ****
 27  28  29  32  34  39  40  41  42  43  44  45  46  47  48  49 0
 3-21G
 ****


