%nproc=1
%NoSave
%Mem=1900MB
#P OB98/GEN NMR

erre ene a

0 1
  C      515.557     449.674      34.442
  O      515.966     451.021      34.570
  P      515.381     452.078      33.508
  C      514.902     453.725      35.471
  O      515.482     453.529      34.185
  C      515.672     454.804      36.241
  O      517.041     454.385      36.431
  C      515.748     456.151      35.534
  O      514.518     456.850      35.632
  C      516.913     456.793      36.282
  O      516.466     457.296      37.557
  C      517.855     455.587      36.496
  N      522.873     456.156      35.582
  C      522.122     456.353      36.698
  N      520.792     456.199      36.852
  C      520.219     455.794      35.710
  C      520.840     455.582      34.497
  C      522.234     455.777      34.447
  N      522.981     455.576      33.299
  N      519.928     455.204      33.536
  C      518.770     455.174      34.164
  N      518.899     455.518      35.484
  O      513.812     451.769      33.522
  O      515.962     451.975      32.137
  H      516.027     458.160      37.385
  H      513.423     451.905      32.631
  H      522.686     456.667      37.588
  H      517.817     454.911      33.713
  H      518.346     455.610      37.472
  H      517.371     457.620      35.743
  H      516.009     456.017      34.480
  H      515.199     454.913      37.225
  H      514.940     452.797      36.033
  H      523.947     455.889      33.323
  H      522.492     455.442      32.433
  H      513.847     454.002      35.351
  P      514.404     458.251      34.861
  C      511.926     457.875      34.294
  O      512.852     458.663      35.030
  O      514.477     457.791      33.330
  O      515.393     459.287      35.278
  H      513.881     457.046      33.142
  H      510.912     458.213      34.542
  H      512.020     456.817      34.568
  H      512.092     457.993      33.223
  H      516.019     449.087      35.208
  H      515.849     449.302      33.482
  H      514.493     449.614      34.539

 3  4  5  6  7  8  9  10  11  12  22  25  29  30  31  32 0
 6-311+G(2d,p)
 ****
 33  36  37 0
 6-311+G(2d,p)
 ****
 1  2  13  14  15  16  17  18  19  20  21  23  24  26 0
 3-21G
 ****
 27  28  34  35  38  39  40  41  42  43  44  45  46  47  48 0
 3-21G
 ****


