%nproc=1
%NoSave
%Mem=1900MB
#P OB98/GEN NMR

erre ene a

0 1
  C      170.266     144.723    -348.712
  O      170.634     144.658    -350.075
  H      169.478     143.987    -348.527
  H      169.882     145.716    -348.462
  H      171.122     144.483    -348.076
  P      171.696     145.720    -350.630
  C      170.772     146.109    -353.014
  O      171.776     145.503    -352.217
  C      170.342     145.177    -354.154
  O      169.611     144.053    -353.591
  C      169.423     145.846    -355.189
  O      169.662     145.207    -356.450
  C      168.052     145.479    -354.655
  O      167.047     145.703    -355.609
  C      168.306     144.037    -354.212
  N      167.278     143.540    -353.311
  C      166.345     142.656    -353.863
  O      166.411     142.347    -355.053
  N      165.344     142.170    -353.065
  C      165.242     142.582    -351.839
  N      164.220     142.071    -351.103
  C      166.170     143.558    -351.233
  C      167.158     143.988    -352.016
  O      173.014     145.746    -349.932
  O      170.938     147.128    -350.497
  H      166.154     145.545    -355.224
  H      171.301     147.624    -349.740
  H      166.030     143.883    -350.213
  H      167.890     144.706    -351.660
  H      168.364     143.367    -355.080
  H      167.802     146.100    -353.788
  H      169.588     146.924    -355.274
  H      171.241     144.766    -354.630
  H      163.598     141.412    -351.561
  H      171.189     147.034    -353.423
  H      164.025     142.331    -350.147
  H      169.901     146.360    -352.399
  P      170.098     146.011    -357.768
  C      168.275     145.399    -359.489
  O      169.619     145.199    -359.066
  O      171.541     146.401    -357.792
  O      169.168     147.315    -357.783
  H      169.655     148.046    -358.208
  H      168.082     144.805    -360.358
  H      168.125     146.432    -359.723
  H      167.607     145.110    -358.704

 6  7  8  9  10  11  12  13  14  15  16  26  30  31  32  33  35 0
 6-311+G(2d,p)
 ****
 37  38 0
 6-311+G(2d,p)
 ****
 1  2  3  4  5  17  18  19  20  21  22  23  24  25 0
 3-21G
 ****
 27  28  29  34  36  39  40  41  42  43  44  45  46 0
 3-21G
 ****


