%nproc=1
%NoSave
%Mem=1900MB
#P OB98/GEN NMR

erre ene a

0 1
  C      101.506     -39.822     487.377
  O      100.325     -40.226     488.065
  P       99.858     -41.747     487.844
  C       99.348     -43.550     489.641
  O       99.099     -42.233     489.172
  C       98.628     -43.802     490.970
  O       99.360     -43.264     492.095
  C       97.243     -43.178     491.034
  O       96.310     -43.996     490.339
  C       96.989     -43.121     492.539
  O       96.493     -44.381     493.029
  C       98.395     -42.840     493.098
  N       97.429     -39.169     496.466
  C       96.867     -40.434     496.342
  N       95.936     -40.768     497.257
  N       97.195     -41.280     495.403
  C       98.143     -40.805     494.553
  C       98.791     -39.597     494.591
  C       98.419     -38.656     495.634
  O       98.903     -37.542     495.800
  N       99.736     -39.503     493.598
  C       99.567     -40.604     492.890
  N       98.659     -41.461     493.469
  O      101.232     -42.562     487.860
  O       99.112     -41.959     486.570
  H       97.113     -45.087     492.768
  H      101.432     -42.895     486.966
  H       97.133     -38.552     497.197
  H      100.092     -40.841     491.983
  H       98.596     -43.438     493.998
  H       96.245     -42.371     492.793
  H       95.637     -40.157     498.015
  H       97.264     -42.159     490.614
  H       95.518     -41.685     497.191
  H       98.557     -44.890     491.105
  H      100.424     -43.709     489.763
  H       99.011     -44.263     488.877
  P       95.815     -43.513     488.898
  C       94.994     -44.757     486.772
  O       95.132     -44.771     488.176
  O       97.192     -43.304     488.096
  O       95.004     -42.258     488.907
  H       97.150     -42.467     487.588
  H       95.029     -45.785     486.404
  H       95.798     -44.183     486.286
  H       94.023     -44.319     486.507
  H      101.716     -38.797     487.600
  H      101.361     -39.935     486.323
  H      102.328     -40.431     487.691

 3  4  5  6  7  8  9  10  11  12  23  26  30  31 0
 6-311+G(2d,p)
 ****
 33  35  36  37  38 0
 6-311+G(2d,p)
 ****
 1  2  13  14  15  16  17  18  19  20  21  22  24  25 0
 3-21G
 ****
 27  28  29  32  34  39  40  41  42  43  44  45  46  47  48  49 0
 3-21G
 ****


