%nproc=1
%NoSave
%Mem=1900MB
#P OB98/GEN NMR

erre ene a

0 1
  C     -295.198     -93.727       8.576
  O     -295.305     -93.330       7.225
  H     -295.180     -92.834       9.204
  H     -294.269     -94.281       8.732
  H     -296.052     -94.344       8.870
  P     -295.555     -94.450       6.107
  C     -298.074     -94.295       6.639
  O     -296.953     -95.151       6.459
  C     -299.357     -95.121       6.682
  O     -300.477     -94.282       7.038
  C     -299.727     -95.762       5.349
  O     -298.914     -96.890       5.088
  C     -301.198     -96.072       5.586
  O     -301.350     -97.273       6.357
  C     -301.648     -94.832       6.397
  N     -302.322     -93.824       5.582
  C     -303.683     -94.022       5.354
  O     -304.297     -95.001       5.772
  N     -304.308     -93.055       4.611
  C     -303.706     -91.987       4.017
  O     -304.304     -91.177       3.313
  C     -302.263     -91.848       4.261
  C     -301.647     -92.759       5.021
  O     -294.423     -95.394       5.866
  O     -295.901     -93.599       4.794
  H     -302.312     -97.426       6.451
  H     -295.114     -93.546       4.220
  H     -305.289     -93.186       4.427
  H     -301.749     -91.017       3.802
  H     -300.582     -92.679       5.209
  H     -302.332     -95.136       7.201
  H     -301.751     -96.223       4.658
  H     -299.650     -95.028       4.540
  H     -299.247     -95.883       7.463
  H     -298.119     -93.593       5.798
  H     -297.944     -93.732       7.568
  P     -298.931     -97.595       3.652
  C     -296.652     -96.682       2.928
  O     -298.048     -96.694       2.659
  O     -300.285     -97.948       3.132
  O     -298.033     -98.901       3.852
  H     -298.603     -99.696       3.884
  H     -296.157     -96.057       2.215
  H     -296.267     -97.678       2.858
  H     -296.482     -96.303       3.914

 6  7  8  9  10  11  12  13  14  15  16  26  31  32  33  34  35 0
 6-311+G(2d,p)
 ****
 36  37 0
 6-311+G(2d,p)
 ****
 1  2  3  4  5  17  18  19  20  21  22  23  24  25 0
 3-21G
 ****
 27  28  29  30  38  39  40  41  42  43  44  45 0
 3-21G
 ****


