%nproc=1
%NoSave
%Mem=1900MB
#P OB98/GEN NMR

erre ene a

0 1
  C       29.579     292.409    -152.314
  O       30.938     292.203    -151.908
  P       31.896     291.352    -152.872
  C       34.198     291.727    -154.029
  O       33.059     292.310    -153.414
  C       34.855     292.710    -155.003
  O       33.964     293.076    -156.079
  C       35.265     294.027    -154.358
  O       36.512     293.909    -153.690
  C       35.395     294.923    -155.577
  O       36.666     294.681    -156.224
  C       34.246     294.438    -156.464
  N       31.568     298.372    -158.360
  C       32.771     297.855    -158.693
  N       33.428     296.819    -158.136
  C       32.706     296.290    -157.129
  C       31.463     296.709    -156.672
  C       30.887     297.805    -157.336
  N       29.658     298.325    -156.993
  N       31.039     295.932    -155.617
  C       32.002     295.044    -155.452
  N       33.032     295.227    -156.331
  O       30.983     291.120    -154.168
  O       32.350     290.062    -152.284
  H       36.626     295.113    -157.100
  H       31.177     290.249    -154.558
  H       33.277     298.342    -159.530
  H       31.996     294.252    -154.708
  H       34.516     294.431    -157.530
  H       35.367     295.987    -155.323
  H       34.474     294.405    -153.692
  H       35.737     292.219    -155.438
  H       33.913     290.812    -154.553
  H       29.302     299.099    -157.534
  H       29.138     297.889    -156.247
  H       34.908     291.418    -153.249
  P       36.485     293.809    -152.085
  C       35.004     292.074    -150.828
  O       36.048     292.296    -151.761
  O       35.197     294.678    -151.698
  O       37.721     294.293    -151.417
  H       35.324     295.083    -150.811
  H       34.634     291.057    -150.953
  H       34.177     292.775    -150.992
  H       35.389     292.191    -149.810
  H       29.070     292.990    -151.574
  H       29.092     291.463    -152.422
  H       29.561     292.928    -153.249

 3  4  5  6  7  8  9  10  11  12  22  25  29  30  31  32 0
 6-311+G(2d,p)
 ****
 33  36  37 0
 6-311+G(2d,p)
 ****
 1  2  13  14  15  16  17  18  19  20  21  23  24  26 0
 3-21G
 ****
 27  28  34  35  38  39  40  41  42  43  44  45  46  47  48 0
 3-21G
 ****


