%nproc=1
%NoSave
%Mem=1900MB
#P OB98/GEN NMR

erre ene a

0 1
  C     -486.020    -339.596    -899.186
  O     -486.599    -339.113    -897.976
  P     -488.198    -339.037    -897.866
  C     -488.645    -339.439    -895.276
  O     -488.688    -339.915    -896.616
  C     -487.777    -340.384    -894.426
  O     -486.416    -340.364    -894.866
  C     -487.790    -340.056    -892.946
  O     -488.891    -340.657    -892.246
  C     -486.432    -340.572    -892.486
  O     -486.483    -342.026    -892.326
  C     -485.541    -340.219    -893.716
  N     -484.949    -338.834    -893.716
  C     -483.568    -338.671    -893.696
  O     -482.744    -339.589    -893.686
  N     -483.102    -337.367    -893.766
  C     -483.863    -336.256    -893.976
  O     -483.399    -335.130    -894.066
  C     -485.318    -336.494    -894.126
  C     -485.761    -337.728    -893.976
  O     -488.704    -339.886    -899.136
  O     -488.762    -337.663    -897.866
  H     -485.595    -342.277    -891.996
  H     -489.199    -339.322    -899.766
  H     -482.116    -337.220    -893.686
  H     -485.943    -335.652    -894.346
  H     -486.843    -337.937    -894.106
  H     -484.689    -340.918    -893.786
  H     -486.153    -340.183    -891.496
  H     -487.793    -338.966    -892.796
  H     -488.153    -341.428    -894.566
  H     -489.626    -339.352    -894.846
  H     -488.220    -338.423    -895.266
  P     -489.962    -339.711    -891.526
  C     -492.030    -340.484    -892.906
  O     -491.094    -339.417    -892.656
  O     -489.432    -338.505    -890.826
  O     -490.730    -340.714    -890.546
  H     -490.336    -340.661    -889.636
  H     -492.828    -340.099    -893.536
  H     -492.457    -340.829    -891.956
  H     -491.503    -341.295    -893.426
  H     -484.953    -339.585    -899.101
  H     -486.319    -338.969    -900.000
  H     -486.353    -340.597    -899.366

 3  4  5  6  7  8  9  10  11  12  13  23  28  29  30  31  32 0
 6-311+G(2d,p)
 ****
 33  34 0
 6-311+G(2d,p)
 ****
 1  2  14  15  16  17  18  19  20  21  22  24  25  26  27 0
 3-21G
 ****
 35  36  37  38  39  40  41  42  43  44  45 0
 3-21G
 ****


