%nproc=1
%NoSave
%Mem=1900MB
#P OB98/GEN NMR

erre ene a

0 1
  C      170.594     -87.841    -264.187
  O      171.438     -88.899    -263.742
  P      172.815     -89.143    -264.532
  C      174.267     -89.726    -262.459
  O      173.985     -88.788    -263.495
  C      174.664     -89.005    -261.174
  O      173.563     -88.206    -260.682
  C      175.054     -89.920    -260.019
  O      176.404     -90.368    -260.122
  C      174.901     -88.987    -258.841
  O      176.049     -88.119    -258.737
  C      173.657     -88.169    -259.230
  N      170.033     -87.402    -255.693
  C      171.173     -86.739    -255.972
  N      172.095     -87.001    -256.923
  C      171.758     -88.119    -257.603
  C      170.643     -88.935    -257.404
  C      169.742     -88.523    -256.405
  N      168.570     -89.189    -256.127
  N      170.636     -89.985    -258.295
  C      171.731     -89.823    -259.014
  N      172.435     -88.700    -258.645
  O      172.866     -87.912    -265.571
  O      172.926     -90.462    -265.220
  H      176.843     -88.686    -258.783
  H      173.427     -88.142    -266.330
  H      171.374     -85.861    -255.362
  H      172.037     -90.465    -259.828
  H      173.735     -87.115    -258.934
  H      174.823     -89.517    -257.879
  H      174.353     -90.761    -259.927
  H      175.491     -88.315    -261.410
  H      175.090     -90.368    -262.774
  H      167.890     -88.737    -255.531
  H      168.264     -89.899    -256.798
  H      173.371     -90.349    -262.282
  P      176.632     -91.910    -260.471
  C      178.025     -91.774    -262.663
  O      176.758     -91.987    -262.070
  O      175.202     -92.576    -260.164
  O      177.736     -92.563    -259.701
  H      175.301     -93.521    -259.940
  H      177.998     -92.150    -263.694
  H      178.801     -92.305    -262.122
  H      178.257     -90.705    -262.697
  H      169.720     -87.799    -263.571
  H      170.306     -88.017    -265.202
  H      171.122     -86.912    -264.122

 3  4  5  6  7  8  9  10  11  12  22  25  29  30  31  32 0
 6-311+G(2d,p)
 ****
 33  36  37 0
 6-311+G(2d,p)
 ****
 1  2  13  14  15  16  17  18  19  20  21  23  24  26 0
 3-21G
 ****
 27  28  34  35  38  39  40  41  42  43  44  45  46  47  48 0
 3-21G
 ****


