%nproc=1
%NoSave
%Mem=1900MB
#P OB98/GEN NMR

erre ene a

0 1
  C      226.798    -894.250     788.618
  O      225.610    -895.010     788.496
  P      225.762    -896.610     788.399
  C      224.499    -898.620     789.531
  O      224.671    -897.220     789.410
  C      223.287    -898.930     790.452
  O      223.484    -898.280     791.727
  C      221.966    -898.410     789.922
  O      221.439    -899.230     788.896
  C      221.133    -898.390     791.215
  O      220.659    -899.710     791.512
  C      222.176    -897.940     792.255
  N      222.092    -896.540     792.604
  C      220.946    -896.120     793.277
  O      220.036    -896.900     793.567
  N      220.874    -894.780     793.587
  C      221.780    -893.820     793.235
  O      221.633    -892.640     793.505
  C      222.955    -894.310     792.501
  C      223.054    -895.620     792.210
  O      227.161    -896.830     789.133
  O      225.701    -897.120     786.993
  H      227.338    -896.110     789.790
  H      220.053    -899.620     792.268
  H      220.042    -894.470     794.087
  H      223.701    -893.570     792.192
  H      223.922    -895.980     791.678
  H      222.059    -898.530     793.172
  H      220.262    -897.720     791.143
  H      222.071    -897.370     789.557
  H      223.254    -900.000     790.614
  H      225.396    -899.070     789.965
  H      224.332    -899.050     788.538
  P      220.298    -898.590     787.955
  C      219.486    -899.030     785.518
  O      220.360    -899.390     786.576
  O      220.948    -897.160     787.622
  O      218.956    -898.520     788.612
  H      221.899    -897.210     787.418
  H      219.899    -899.410     784.576
  H      219.353    -897.940     785.440
  H      218.510    -899.500     785.682
  H      226.552    -893.210     788.672
  H      227.422    -894.425     787.767
  H      227.318    -894.540     789.507

 3  4  5  6  7  8  9  10  11  12  13  24  28  29  30  31  32 0
 6-311+G(2d,p)
 ****
 33  34 0
 6-311+G(2d,p)
 ****
 1  2  14  15  16  17  18  19  20  21  22  23  25  26  27 0
 3-21G
 ****
 35  36  37  38  39  40  41  42  43  44  45 0
 3-21G
 ****


