%nproc=1
%NoSave
%Mem=1900MB
#P OB98/GEN NMR

erre ene a

0 1
  C      201.599    -509.704    -232.652
  O      200.711    -510.141    -231.644
  H      201.630    -510.465    -233.440
  H      202.602    -509.582    -232.244
  H      201.253    -508.762    -233.094
  P      200.364    -509.146    -230.431
  C      199.727    -510.837    -228.587
  O      199.259    -509.871    -229.519
  C      199.195    -512.231    -228.938
  O      197.789    -512.119    -229.283
  C      199.914    -512.890    -230.124
  O      200.034    -514.292    -229.882
  C      198.977    -512.644    -231.287
  O      199.121    -513.622    -232.316
  C      197.613    -512.684    -230.606
  N      194.725    -512.683    -234.753
  C      195.559    -513.650    -234.256
  N      195.666    -514.793    -234.972
  N      196.248    -513.529    -233.147
  C      196.027    -512.345    -232.511
  C      195.221    -511.297    -232.908
  C      194.486    -511.447    -234.149
  O      193.744    -510.611    -234.650
  N      195.285    -510.260    -232.012
  C      196.123    -510.673    -231.078
  N      196.619    -511.925    -231.350
  O      200.015    -507.748    -230.845
  O      201.671    -509.177    -229.509
  H      198.896    -514.489    -231.916
  H      202.194    -508.357    -229.613
  H      194.228    -512.824    -235.615
  H      196.410    -510.113    -230.205
  H      197.225    -513.705    -230.497
  H      199.175    -511.657    -231.724
  H      195.149    -514.967    -235.826
  H      200.903    -512.456    -230.293
  H      196.251    -515.540    -234.613
  H      199.257    -512.863    -228.042
  H      199.380    -510.551    -227.587
  H      200.827    -510.840    -228.594
  P      201.500    -514.934    -229.704
  C      202.033    -515.140    -232.206
  O      201.832    -515.839    -230.984
  O      201.758    -515.585    -228.377
  O      202.470    -513.666    -229.912
  H      203.251    -513.764    -229.325
  H      202.246    -515.840    -232.986
  H      202.855    -514.464    -232.099
  H      201.149    -514.590    -232.452

 6  7  8  9  10  11  12  13  14  15  26  29  33  34 0
 6-311+G(2d,p)
 ****
 36  38  39  40  41 0
 6-311+G(2d,p)
 ****
 1  2  3  4  5  16  17  18  19  20  21  22  23  24  25 0
 3-21G
 ****
 27  28  30  31  32  35  37  42  43  44  45  46  47 0
 3-21G
 ****
 48  49 0
 3-21G
 ****


