%nproc=1
%NoSave
%Mem=1900MB
#P OB98/GEN NMR

erre ene a

0 1
  C       48.579      79.894     -38.986
  O       48.050      80.858     -39.871
  P       47.875      80.606     -41.438
  C       49.441      80.106     -43.451
  O       49.339      80.558     -42.106
  C       50.894      79.985     -43.935
  O       51.528      78.869     -43.277
  C       50.927      79.679     -45.436
  O       50.821      80.727     -46.378
  C       52.132      78.765     -45.627
  O       53.290      79.470     -46.079
  C       52.368      78.192     -44.224
  N       54.465      73.584     -43.930
  C       55.048      74.822     -43.722
  N       56.394      74.828     -43.609
  N       54.371      75.938     -43.657
  C       53.045      75.781     -43.886
  C       52.353      74.608     -44.090
  C       53.108      73.376     -44.119
  O       52.641      72.272     -44.386
  N       51.029      74.838     -44.360
  C       50.922      76.148     -44.360
  N       52.129      76.766     -44.117
  O       46.799      81.381     -42.129
  O       47.440      79.052     -41.464
  H       53.983      78.811     -46.274
  H       46.817      78.933     -42.207
  H       55.049      72.765     -44.052
  H       50.012      76.702     -44.563
  H       53.404      78.368     -43.906
  H       51.922      77.999     -46.382
  H       56.956      74.012     -43.799
  H       50.058      79.044     -45.648
  H       56.865      75.727     -43.625
  H       51.476      80.864     -43.651
  H       48.883      80.809     -44.078
  H       48.950      79.132     -43.549
  P       50.014      80.684     -47.759
  C       50.399      79.670     -50.074
  O       51.013      80.197     -48.912
  O       49.774      82.226     -48.124
  O       48.712      79.955     -47.704
  H       49.015      82.306     -48.733
  H       51.142      79.104     -50.644
  H       50.026      80.489     -50.695
  H       49.569      79.004     -49.813
  H       48.597      80.293     -37.993
  H       49.574      79.642     -39.287
  H       47.967      79.017     -39.007

 3  4  5  6  7  8  9  10  11  12  23  26  30  31 0
 6-311+G(2d,p)
 ****
 33  35  36  37  38 0
 6-311+G(2d,p)
 ****
 1  2  13  14  15  16  17  18  19  20  21  22  24  25 0
 3-21G
 ****
 27  28  29  32  34  39  40  41  42  43  44  45  46  47  48  49 0
 3-21G
 ****


