%nproc=1
%NoSave
%Mem=1900MB
#P OB98/GEN NMR

erre ene a

0 1
  C      430.131     356.408    1843.093
  O      429.686     356.966    1841.867
  H      430.968     357.001    1843.448
  H      430.447     355.373    1842.953
  H      429.321     356.454    1843.829
  P      428.465     356.210    1841.141
  C      426.953     358.309    1841.340
  O      427.617     357.399    1840.461
  C      426.595     359.617    1840.600
  O      427.817     360.337    1840.293
  C      425.855     359.360    1839.277
  O      424.824     360.379    1839.113
  C      426.926     359.551    1838.197
  O      426.391     359.936    1836.938
  C      427.830     360.606    1838.872
  N      430.684     360.927    1834.643
  C      429.365     361.181    1834.858
  N      428.686     361.094    1836.034
  C      429.531     360.716    1837.031
  C      430.879     360.431    1836.949
  C      431.444     360.540    1835.667
  N      432.780     360.274    1835.421
  N      431.365     360.068    1838.210
  C      430.344     360.155    1839.016
  N      429.183     360.534    1838.356
  O      427.659     355.285    1841.999
  O      429.188     355.543    1839.880
  H      427.151     360.007    1836.316
  H      429.815     356.164    1839.462
  H      428.771     361.494    1834.002
  H      430.367     359.920    1840.089
  H      427.486     361.633    1838.709
  H      427.481     358.599    1838.089
  H      425.386     358.365    1839.220
  H      426.001     360.248    1841.283
  H      427.620     358.548    1842.191
  H      433.109     360.388    1834.486
  H      433.368     359.998    1836.190
  H      426.049     357.822    1841.718
  P      423.648     360.106    1838.042
  C      421.833     359.716    1839.865
  O      422.246     360.500    1838.744
  O      423.684     358.749    1837.367
  O      423.861     361.302    1836.991
  H      423.664     360.950    1836.081
  H      420.896     360.082    1840.230
  H      422.569     359.785    1840.639
  H      421.725     358.695    1839.565

 6  7  8  9  10  11  12  13  14  15  25  28  32  33  34  35 0
 6-311+G(2d,p)
 ****
 36  39  40 0
 6-311+G(2d,p)
 ****
 1  2  3  4  5  16  17  18  19  20  21  22  23  24 0
 3-21G
 ****
 26  27  29  30  31  37  38  41  42  43  44  45  46  47 0
 3-21G
 ****
 48 0
 3-21G
 ****


