%nproc=1
%NoSave
%Mem=1900MB
#P OB98/GEN NMR

erre ene a

0 1
  C      298.983     119.556    -559.905
  O      298.837     120.242    -558.674
  H      299.811     119.982    -560.479
  H      299.204     118.505    -559.696
  H      298.054     119.613    -560.483
  P      298.477     121.803    -558.767
  C      300.803     122.831    -558.236
  O      299.487     122.556    -557.771
  C      301.760     122.956    -557.053
  O      301.409     124.103    -556.254
  C      301.755     121.769    -556.097
  O      302.528     120.688    -556.591
  C      302.391     122.399    -554.864
  O      303.819     122.457    -555.035
  C      301.796     123.811    -554.880
  N      300.000     123.283    -550.119
  C      301.240     123.119    -550.642
  N      301.639     123.301    -551.914
  C      300.617     123.710    -552.682
  C      299.309     123.937    -552.293
  C      299.007     123.699    -550.936
  N      297.720     123.805    -550.430
  N      298.542     124.336    -553.368
  C      299.366     124.326    -554.390
  N      300.633     123.964    -554.023
  O      297.061     121.889    -558.016
  O      298.401     122.357    -560.151
  H      304.122     121.537    -555.189
  H      296.346     121.873    -558.675
  H      302.007     122.795    -549.938
  H      299.094     124.574    -555.408
  H      302.529     124.574    -554.586
  H      302.195     121.834    -553.946
  H      300.736     121.455    -555.846
  H      302.769     123.131    -557.457
  H      300.800     123.763    -558.805
  H      297.545     123.192    -549.640
  H      296.994     123.860    -551.136
  H      301.118     122.012    -558.894
  P      301.913     119.212    -556.482
  C      304.003     118.138    -555.398
  O      303.150     118.193    -556.536
  O      301.196     119.022    -557.891
  O      300.949     119.006    -555.351
  H      300.252     118.799    -557.766
  H      304.780     117.422    -555.569
  H      303.434     117.848    -554.539
  H      304.436     119.102    -555.230

 6  7  8  9  10  11  12  13  14  15  25  28  32  33  34  35 0
 6-311+G(2d,p)
 ****
 36  39  40 0
 6-311+G(2d,p)
 ****
 1  2  3  4  5  16  17  18  19  20  21  22  23  24 0
 3-21G
 ****
 26  27  29  30  31  37  38  41  42  43  44  45  46  47  48 0
 3-21G
 ****


