%nproc=1
%NoSave
%Mem=1900MB
#P OB98/GEN NMR

erre ene a

0 1
  C      472.879     110.406    -368.290
  O      473.529     111.088    -367.206
  P      473.077     110.766    -365.696
  C      475.272     110.868    -364.285
  O      474.052     111.495    -364.654
  C      476.432     111.346    -365.168
  O      476.533     112.798    -365.121
  C      477.807     110.791    -364.769
  O      478.570     110.645    -365.977
  C      478.376     111.912    -363.917
  O      479.792     111.852    -363.790
  C      477.872     113.128    -364.701
  N      477.883     114.379    -363.938
  C      479.039     115.155    -363.980
  O      480.071     114.832    -364.562
  N      478.988     116.336    -363.284
  C      477.936     116.788    -362.539
  O      477.965     117.842    -361.914
  C      476.754     115.916    -362.510
  C      476.785     114.773    -363.199
  O      473.505     109.229    -365.542
  O      471.617     110.924    -365.418
  H      480.158     111.728    -364.684
  H      472.784     108.726    -365.127
  H      479.810     116.918    -363.314
  H      475.901     116.240    -361.934
  H      475.919     114.117    -363.199
  H      478.466     113.255    -365.610
  H      477.948     111.862    -362.913
  H      477.744     109.834    -364.239
  H      476.201     111.078    -366.206
  H      475.164     109.784    -364.393
  H      475.480     111.087    -363.232
  P      478.827     109.164    -366.543
  C      479.221     109.831    -369.040
  O      479.748     109.310    -367.842
  O      477.379     108.837    -367.155
  O      479.265     108.173    -365.517
  H      477.017     109.580    -367.670
  H      478.558     110.680    -368.851
  H      478.669     109.053    -369.568
  H      480.048     110.166    -369.671
  H      473.296     110.734    -369.219
  H      471.832     110.625    -368.272
  H      473.025     109.351    -368.186

 3  4  5  6  7  8  9  10  11  12  13  23  28  29  30  31  32 0
 6-311+G(2d,p)
 ****
 33  34 0
 6-311+G(2d,p)
 ****
 1  2  14  15  16  17  18  19  20  21  22  24  25  26 0
 3-21G
 ****
 27  35  36  37  38  39  40  41  42  43  44  45 0
 3-21G
 ****


