%nproc=1
%NoSave
%Mem=1900MB
#P OB98/GEN NMR

erre ene a

0 1
  C      490.925    -610.525     387.410
  O      491.743    -609.657     388.170
  H      490.550    -611.313     388.068
  H      491.508    -610.984     386.609
  H      490.074    -609.987     386.989
  P      492.287    -608.316     387.484
  C      494.042    -608.301     389.379
  O      493.799    -608.115     387.987
  C      495.371    -609.023     389.582
  O      495.216    -610.429     389.268
  C      496.490    -608.523     388.684
  O      497.006    -607.290     389.133
  C      497.461    -609.693     388.758
  O      498.259    -609.623     389.951
  C      496.500    -610.905     388.816
  N      496.393    -611.584     387.526
  C      497.022    -612.811     387.417
  O      497.635    -613.348     388.348
  N      496.977    -613.408     386.182
  C      496.503    -612.821     385.044
  O      496.705    -613.276     383.923
  C      495.796    -611.551     385.228
  C      495.789    -610.981     386.438
  O      491.412    -607.113     387.619
  O      492.478    -608.731     385.949
  H      491.730    -608.378     385.427
  H      498.770    -610.459     389.979
  H      497.469    -614.285     386.088
  H      495.342    -611.087     384.352
  H      495.298    -610.023     386.588
  H      496.851    -611.634     389.562
  H      498.137    -609.713     387.907
  H      496.129    -608.434     387.649
  H      495.652    -608.944     390.643
  H      493.227    -608.897     389.801
  H      494.053    -607.318     389.870
  P      497.104    -606.038     388.122
  C      498.693    -604.931     389.820
  O      498.459    -605.247     388.449
  O      495.881    -605.189     388.039
  O      497.424    -606.720     386.701
  H      496.798    -606.362     386.040
  H      499.621    -604.407     389.912
  H      498.735    -605.834     390.392
  H      497.898    -604.315     390.185

 6  7  8  9  10  11  12  13  14  15  16  27  31  32  33  34  35 0
 6-311+G(2d,p)
 ****
 36  37 0
 6-311+G(2d,p)
 ****
 1  2  3  4  5  17  18  19  20  21  22  23  24  25 0
 3-21G
 ****
 26  28  29  30  38  39  40  41  42  43  44  45 0
 3-21G
 ****


