%nproc=1
%NoSave
%Mem=1900MB
#P OB98/GEN NMR

erre ene a

0 1
  C     -670.039     256.427     -19.311
  O     -670.263     257.743     -19.773
  H     -670.827     255.780     -19.703
  H     -670.078     256.406     -18.220
  H     -669.073     256.047     -19.658
  P     -669.108     258.837     -19.593
  C     -668.729     259.090     -22.129
  O     -668.163     258.715     -20.888
  C     -668.070     258.325     -23.287
  O     -668.158     256.898     -23.010
  C     -668.728     258.573     -24.652
  O     -667.703     258.454     -25.648
  C     -669.694     257.404     -24.744
  O     -670.123     257.189     -26.070
  C     -668.852     256.289     -24.118
  N     -669.659     255.147     -23.696
  C     -669.936     254.194     -24.674
  O     -669.571     254.293     -25.843
  N     -670.707     253.129     -24.276
  C     -671.258     252.970     -23.038
  O     -671.964     252.010     -22.746
  C     -670.963     254.026     -22.061
  C     -670.185     255.049     -22.429
  O     -668.385     258.806     -18.287
  O     -669.844     260.236     -19.835
  H     -669.355     257.005     -26.651
  H     -669.409     260.941     -19.311
  H     -670.914     252.431     -24.967
  H     -671.393     253.930     -21.071
  H     -669.951     255.844     -21.729
  H     -668.094     255.926     -24.830
  H     -670.588     257.591     -24.141
  H     -669.222     259.540     -24.724
  H     -667.008     258.581     -23.311
  H     -668.571     260.166     -22.264
  H     -669.805     258.887     -22.122
  P     -666.871     259.723     -26.168
  C     -664.821     259.291     -24.671
  O     -665.869     260.190     -25.007
  O     -667.711     260.819     -26.734
  O     -665.885     259.130     -27.279
  H     -665.671     259.823     -27.939
  H     -664.225     259.714     -23.889
  H     -664.209     259.119     -25.532
  H     -665.239     258.364     -24.339

 6  7  8  9  10  11  12  13  14  15  16  26  31  32  33  34  35 0
 6-311+G(2d,p)
 ****
 36  37 0
 6-311+G(2d,p)
 ****
 1  2  3  4  5  17  18  19  20  21  22  23  24  25 0
 3-21G
 ****
 27  28  29  30  38  39  40  41  42  43  44  45 0
 3-21G
 ****


