%nproc=1
%NoSave
%Mem=1900MB
#P OB98/GEN NMR

erre ene a

0 1
  C      645.043     705.598     478.229
  O      644.908     704.917     476.987
  P      643.885     703.718     476.719
  C      641.516     703.432     477.808
  O      642.405     704.240     477.059
  C      640.080     703.429     477.246
  O      639.590     704.800     477.160
  C      640.066     702.872     475.819
  O      640.007     701.471     475.613
  C      638.948     703.642     475.126
  O      637.694     702.951     475.156
  C      638.858     704.937     475.923
  N      637.808     708.691     472.605
  C      637.004     707.661     473.038
  N      635.759     707.588     472.488
  N      637.368     706.775     473.927
  C      638.655     706.920     474.329
  C      639.557     707.887     473.957
  C      639.115     708.893     473.016
  O      639.784     709.846     472.604
  N      640.764     707.700     474.562
  C      640.621     706.602     475.275
  N      639.345     706.098     475.176
  O      644.273     702.402     477.283
  O      643.881     703.585     475.108
  H      637.454     702.809     476.085
  H      643.734     702.637     474.909
  H      637.453     709.370     471.939
  H      641.383     706.139     475.894
  H      637.825     705.159     476.204
  H      639.188     703.784     474.060
  H      635.469     708.163     471.721
  H      640.990     703.202     475.335
  H      635.260     706.713     472.641
  H      639.401     702.911     477.919
  H      641.526     703.811     478.830
  H      641.885     702.403     477.845
  P      641.270     700.516     475.330
  C      643.411     699.828     476.549
  O      642.339     700.750     476.499
  O      641.977     701.172     474.056
  O      640.931     699.080     475.061
  H      642.594     700.544     473.643
  H      643.889     699.897     477.544
  H      644.154     700.060     475.779
  H      643.054     698.801     476.404
  H      645.794     706.355     478.141
  H      645.327     704.901     478.989
  H      644.109     706.051     478.491

 3  4  5  6  7  8  9  10  11  12  23  26  30  31 0
 6-311+G(2d,p)
 ****
 33  35  36  37  38 0
 6-311+G(2d,p)
 ****
 1  2  13  14  15  16  17  18  19  20  21  22  24  25 0
 3-21G
 ****
 27  28  29  32  34  39  40  41  42  43  44  45  46  47  48  49 0
 3-21G
 ****


