%nproc=1
%NoSave
%Mem=1900MB
#P OB98/GEN NMR

erre ene a

0 1
  C     -284.451      28.283     -71.784
  O     -283.207      27.649     -71.552
  P     -282.901      26.184     -72.120
  C     -281.180      27.098     -73.791
  O     -282.375      26.342     -73.626
  C     -279.951      26.191     -73.892
  O     -280.277      25.038     -74.723
  C     -278.717      26.872     -74.504
  O     -277.574      26.370     -73.796
  C     -278.715      26.373     -75.932
  O     -277.433      26.457     -76.539
  C     -279.257      24.949     -75.741
  N     -279.790      24.389     -76.976
  C     -279.346      23.108     -77.333
  O     -278.452      22.560     -76.686
  N     -279.930      22.486     -78.412
  C     -280.731      23.163     -79.179
  N     -281.337      22.497     -80.201
  C     -281.026      24.599     -78.975
  C     -280.561      25.124     -77.841
  O     -284.004      25.194     -71.945
  O     -281.586      25.723     -71.325
  H     -281.750      24.851     -70.914
  H     -277.484      26.083     -77.447
  H     -281.594      25.149     -79.703
  H     -280.742      26.167     -77.587
  H     -278.473      24.287     -75.360
  H     -279.413      26.972     -76.534
  H     -278.752      27.964     -74.412
  H     -279.724      25.808     -72.890
  H     -281.146      21.505     -80.289
  H     -281.068      27.749     -72.920
  H     -282.194      22.835     -80.638
  H     -281.263      27.732     -74.675
  P     -276.321      27.356     -73.580
  C     -276.373      27.934     -71.051
  O     -276.669      28.346     -72.370
  O     -276.456      28.326     -74.859
  O     -274.967      26.726     -73.573
  H     -275.578      28.699     -75.072
  H     -276.741      28.697     -70.354
  H     -275.290      27.830     -70.920
  H     -276.868      26.983     -70.824
  H     -284.451      29.249     -71.323
  H     -285.237      27.689     -71.367
  H     -284.605      28.391     -72.837

 3  4  5  6  7  8  9  10  11  12  13  24  27  28  29  30  32 0
 6-311+G(2d,p)
 ****
 34  35 0
 6-311+G(2d,p)
 ****
 1  2  14  15  16  17  18  19  20  21  22  23  25  26 0
 3-21G
 ****
 31  33  36  37  38  39  40  41  42  43  44  45  46 0
 3-21G
 ****


