%nproc=1
%NoSave
%Mem=1900MB
#P OB98/GEN NMR

erre ene a

0 1
  C     -140.264    -401.398    -178.941
  O     -140.603    -402.482    -178.087
  P     -142.072    -402.606    -177.453
  C     -140.815    -402.600    -175.208
  O     -141.841    -403.212    -175.983
  C     -140.190    -403.632    -174.267
  O     -141.221    -404.111    -173.371
  C     -139.613    -404.881    -174.934
  O     -138.289    -404.734    -175.426
  C     -139.608    -405.851    -173.751
  O     -138.474    -405.578    -172.908
  C     -140.910    -405.494    -173.040
  N     -145.361    -407.531    -171.540
  C     -144.500    -406.689    -170.922
  N     -143.327    -406.213    -171.387
  C     -143.092    -406.643    -172.637
  C     -143.879    -407.495    -173.394
  C     -145.069    -407.950    -172.797
  N     -145.961    -408.784    -173.432
  N     -143.298    -407.730    -174.628
  C     -142.183    -407.021    -174.610
  N     -142.021    -406.344    -173.438
  O     -143.057    -403.328    -178.308
  O     -142.502    -401.096    -177.153
  H     -138.555    -404.658    -172.595
  H     -143.473    -401.047    -177.022
  H     -144.787    -406.367    -169.934
  H     -141.477    -406.973    -175.423
  H     -140.815    -405.552    -171.946
  H     -139.522    -406.894    -174.063
  H     -140.285    -405.268    -175.717
  H     -139.424    -403.124    -173.667
  H     -141.266    -401.796    -174.617
  H     -146.845    -408.952    -172.984
  H     -145.819    -408.960    -174.419
  H     -140.063    -402.163    -175.868
  P     -138.013    -405.205    -176.939
  C     -135.513    -405.986    -177.093
  O     -136.447    -404.931    -177.202
  O     -138.943    -404.636    -177.943
  O     -138.086    -406.800    -176.832
  H     -137.378    -407.222    -176.319
  H     -134.545    -405.628    -177.459
  H     -135.820    -406.846    -177.692
  H     -135.406    -406.286    -176.051
  H     -139.246    -401.497    -179.256
  H     -140.385    -400.476    -178.412
  H     -140.905    -401.405    -179.798

 3  4  5  6  7  8  9  10  11  12  22  25  29  30  31  32 0
 6-311+G(2d,p)
 ****
 33  36  37 0
 6-311+G(2d,p)
 ****
 1  2  13  14  15  16  17  18  19  20  21  23  24  26 0
 3-21G
 ****
 27  28  34  35  38  39  40  41  42  43  44  45  46  47  48 0
 3-21G
 ****


