%nproc=1
%NoSave
%Mem=1900MB
#P OB98/GEN NMR

erre ene a

0 1
  C      322.977     -82.648      43.523
  O      324.212     -82.783      42.838
  P      324.766     -81.520      42.021
  C      326.191     -80.471      43.920
  O      325.059     -80.338      43.065
  C      326.729     -79.091      44.317
  O      327.406     -78.487      43.178
  C      325.643     -78.114      44.772
  O      326.170     -77.250      45.791
  C      325.397     -77.266      43.544
  O      324.834     -75.997      43.885
  C      326.810     -77.190      42.955
  N      325.456     -73.770      39.491
  C      325.548     -73.639      40.868
  N      325.150     -72.463      41.388
  N      326.013     -74.576      41.655
  C      326.370     -75.704      40.992
  C      326.335     -75.950      39.634
  C      325.814     -74.906      38.775
  O      325.681     -74.963      37.560
  N      326.818     -77.192      39.334
  C      327.102     -77.731      40.507
  N      326.816     -76.877      41.543
  O      323.467     -81.010      41.235
  O      325.876     -81.832      41.074
  H      324.026     -76.182      44.408
  H      323.531     -81.253      40.294
  H      325.084     -73.020      38.933
  H      327.490     -78.726      40.663
  H      327.426     -76.450      43.471
  H      324.699     -77.774      42.862
  H      324.724     -71.725      40.842
  H      324.722     -78.591      45.139
  H      325.167     -72.361      42.394
  H      327.484     -79.228      45.104
  H      326.976     -81.025      43.388
  H      325.919     -81.037      44.813
  P      325.285     -77.117      47.120
  C      326.880     -78.030      48.960
  O      325.782     -78.275      48.103
  O      323.832     -77.614      46.652
  O      325.258     -75.737      47.700
  H      323.145     -77.213      47.212
  H      326.541     -78.104      50.002
  H      327.324     -77.043      48.802
  H      327.642     -78.793      48.785
  H      322.741     -83.567      44.018
  H      322.204     -82.412      42.822
  H      323.054     -81.863      44.246

 3  4  5  6  7  8  9  10  11  12  23  26  30  31 0
 6-311+G(2d,p)
 ****
 33  35  36  37  38 0
 6-311+G(2d,p)
 ****
 1  2  13  14  15  16  17  18  19  20  21  22  24  25 0
 3-21G
 ****
 27  28  29  32  34  39  40  41  42  43  44  45  46  47  48  49 0
 3-21G
 ****


