%nproc=1
%NoSave
%Mem=1900MB
#P OB98/GEN NMR

erre ene a

0 1
  C      309.533     115.138      84.764
  O      310.676     114.792      85.556
  P      311.792     113.877      84.846
  C      312.345     112.471      86.966
  O      312.813     113.388      85.985
  C      313.243     112.496      88.200
  O      314.618     112.250      87.845
  C      313.259     113.830      88.937
  O      312.118     113.983      89.766
  C      314.522     113.689      89.773
  O      314.237     112.942      90.970
  C      315.450     112.887      88.844
  N      319.783     115.473      89.337
  C      319.072     114.745      90.273
  N      319.612     114.672      91.512
  N      317.940     114.142      90.019
  C      317.541     114.273      88.732
  C      318.151     114.967      87.715
  C      319.388     115.658      88.017
  O      320.040     116.340      87.234
  N      317.445     114.865      86.540
  C      316.428     114.086      86.844
  N      316.429     113.713      88.163
  O      312.654     114.944      84.013
  O      311.233     112.806      83.969
  H      313.544     113.431      91.454
  H      313.067     114.510      83.242
  H      320.645     115.922      89.589
  H      315.665     113.763      86.144
  H      315.979     112.095      89.382
  H      314.924     114.656      90.091
  H      320.514     115.051      91.755
  H      313.370     114.664      88.234
  H      319.121     114.114      92.201
  H      312.911     111.698      88.879
  H      312.328     111.463      86.549
  H      311.311     112.725      87.225
  P      311.007     115.043      89.297
  C      310.404     116.521      91.344
  O      310.131     115.346      90.603
  O      310.038     114.168      88.374
  O      311.551     116.233      88.575
  H      309.614     114.730      87.696
  H      310.573     117.378      90.689
  H      311.286     116.355      91.969
  H      309.546     116.738      91.991
  H      308.868     115.744      85.343
  H      309.028     114.246      84.458
  H      309.850     115.683      83.899

 3  4  5  6  7  8  9  10  11  12  23  26  30  31  33  0
 6-311+G(2d,p)
 ****
 35  36  37  38 0
 6-311+G(2d,p)
 ****
 1  2  13  14  15  16  17  18  19  20  21  22  24  25  27  28  29 0
 3-21G
 ****
 32  34  39  40  41  42  43  44  45  46  47  48  49 0
 3-21G
 ****


