%nproc=1
%NoSave
%Mem=1900MB
#P OB98/GEN NMR

erre ene a

0 1
  C      -70.716    -550.039    -315.501
  O      -71.978    -550.632    -315.825
  P      -73.024    -551.079    -314.701
  C      -73.125    -553.475    -315.642
  O      -72.913    -552.670    -314.488
  C      -72.719    -554.928    -315.398
  O      -73.464    -555.495    -314.302
  C      -72.935    -555.858    -316.589
  O      -71.905    -555.698    -317.550
  C      -72.971    -557.219    -315.898
  O      -71.631    -557.690    -315.642
  C      -73.682    -556.891    -314.578
  N      -77.553    -559.064    -312.037
  C      -76.255    -558.895    -311.729
  N      -75.279    -558.313    -312.459
  C      -75.777    -557.852    -313.617
  C      -77.085    -557.953    -314.075
  C      -77.998    -558.597    -313.226
  N      -79.321    -558.785    -313.555
  N      -77.205    -557.383    -315.325
  C      -76.004    -556.928    -315.609
  N      -75.104    -557.187    -314.608
  O      -74.425    -550.588    -314.930
  O      -72.438    -550.477    -313.332
  H      -71.705    -558.523    -315.143
  H      -73.166    -550.308    -312.705
  H      -75.946    -559.284    -310.758
  H      -75.739    -556.404    -316.521
  H      -73.253    -557.450    -313.735
  H      -73.477    -557.984    -316.497
  H      -73.913    -555.660    -317.039
  H      -71.658    -554.934    -315.100
  H      -72.530    -553.058    -316.465
  H      -79.908    -559.281    -312.906
  H      -79.653    -558.477    -314.463
  H      -74.183    -553.428    -315.912
  P      -72.223    -555.020    -318.963
  C      -73.188    -557.185    -319.919
  O      -73.434    -555.831    -319.611
  O      -71.045    -554.807    -319.851
  O      -72.906    -553.626    -318.557
  H      -72.722    -552.962    -319.252
  H      -72.635    -557.255    -320.861
  H      -74.149    -557.710    -320.030
  H      -72.618    -557.674    -319.118
  H      -70.182    -549.821    -316.402
  H      -70.145    -550.719    -314.904
  H      -70.877    -549.133    -314.955

 3  4  5  6  7  8  9  10  11  12  22  25  29  30  31  32 0
 6-311+G(2d,p)
 ****
 33  36  37 0
 6-311+G(2d,p)
 ****
 1  2  13  14  15  16  17  18  19  20  21  23  24  26 0
 3-21G
 ****
 27  28  34  35  38  39  40  41  42  43  44  45  46  47  48 0
 3-21G
 ****


