%nproc=1
%NoSave
%Mem=1900MB
#P OB98/GEN NMR

erre ene a

0 1
  C     -148.052    -202.031      10.082
  O     -148.281    -202.904       8.992
  H     -147.153    -202.357      10.610
  H     -148.899    -202.070      10.771
  H     -147.904    -201.007       9.727
  P     -149.509    -202.548       8.022
  C     -152.059    -202.225       8.388
  O     -150.848    -202.776       8.888
  C     -153.185    -202.379       9.410
  O     -153.490    -203.799       9.567
  C     -152.855    -201.822      10.808
  O     -154.056    -201.279      11.365
  C     -152.489    -203.074      11.591
  O     -152.620    -202.890      13.000
  C     -153.478    -204.072      10.984
  N     -154.007    -207.822      14.307
  C     -154.560    -206.553      14.283
  N     -155.384    -206.234      15.308
  N     -154.328    -205.675      13.344
  C     -153.515    -206.142      12.368
  C     -152.898    -207.371      12.273
  C     -153.143    -208.325      13.335
  O     -152.668    -209.453      13.419
  N     -152.122    -207.450      11.138
  C     -152.273    -206.272      10.549
  N     -153.107    -205.448      11.259
  O     -149.511    -203.777       6.993
  O     -149.414    -201.232       7.324
  H     -153.526    -202.553      13.176
  H     -148.994    -203.552       6.197
  H     -154.213    -208.455      15.059
  H     -151.800    -205.969       9.625
  H     -154.497    -203.936      11.369
  H     -151.454    -203.369      11.379
  H     -155.648    -206.873      16.041
  H     -152.064    -201.060      10.814
  H     -155.835    -205.324      15.290
  H     -154.092    -201.907       9.005
  H     -152.335    -202.753       7.466
  H     -151.905    -201.164       8.157
  P     -154.555    -199.847      10.838
  C     -153.592    -197.429      10.735
  O     -153.424    -198.762      11.191
  O     -155.731    -199.477      11.863
  O     -155.035    -199.850       9.422
  H     -156.378    -198.893      11.430
  H     -152.759    -196.836      11.051
  H     -154.494    -197.023      11.144
  H     -153.650    -197.422       9.667

 6  7  8  9  10  11  12  13  14  15  26  29  33  34 0
 6-311+G(2d,p)
 ****
 36  38  39  40  41 0
 6-311+G(2d,p)
 ****
 1  2  3  4  5  16  17  18  19  20  21  22  23  24  25 0
 3-21G
 ****
 27  28  30  31  32  35  37  42  43  44  45  46  47 0
 3-21G
 ****
 48  49 0
 3-21G
 ****


