%nproc=1
%NoSave
%Mem=1900MB
#P OB98/GEN NMR

erre ene a

0 1
  C      -31.982       6.612      23.922
  O      -32.305       7.094      22.636
  P      -31.533       8.302      21.932
  C      -30.978       9.005      19.493
  O      -31.377       7.957      20.370
  C      -30.722       8.521      18.059
  O      -29.673       7.532      18.065
  C      -31.969       7.824      17.507
  O      -33.020       8.584      16.944
  C      -31.438       6.706      16.620
  O      -31.430       7.061      15.236
  C      -30.010       6.498      17.128
  N      -27.483       2.108      16.940
  C      -27.216       3.294      16.284
  N      -26.272       3.235      15.320
  N      -27.835       4.417      16.538
  C      -28.819       4.294      17.461
  C      -29.166       3.178      18.186
  C      -28.446       1.955      17.926
  O      -28.708       0.863      18.425
  N      -30.260       3.405      18.979
  C      -30.604       4.647      18.705
  N      -29.783       5.214      17.760
  O      -30.357       8.865      22.662
  O      -32.678       9.440      21.914
  H      -32.354       7.099      14.931
  H      -32.235      10.303      22.030
  H      -27.026       1.254      16.646
  H      -31.452       5.167      19.134
  H      -29.291       6.578      16.303
  H      -32.067       5.812      16.704
  H      -25.881       2.361      15.000
  H      -32.442       7.309      18.354
  H      -26.171       4.036      14.707
  H      -30.358       9.336      17.428
  H      -30.076       9.459      19.915
  H      -31.749       9.780      19.477
  P      -34.554       8.149      16.833
  C      -36.657       9.356      16.021
  O      -35.450       9.472      16.752
  O      -34.907       7.569      18.284
  O      -34.844       7.128      15.782
  H      -35.676       6.973      18.222
  H      -37.022      10.355      15.775
  H      -37.407       8.845      16.633
  H      -36.502       8.795      15.095
  H      -32.636       5.804      24.175
  H      -32.096       7.400      24.637
  H      -30.969       6.267      23.930

 3  4  5  6  7  8  9  10  11  12  23  26  30  31 0
 6-311+G(2d,p)
 ****
 33  35  36  37  38 0
 6-311+G(2d,p)
 ****
 1  2  13  14  15  16  17  18  19  20  21  22  24  25 0
 3-21G
 ****
 27  28  29  32  34  39  40  41  42  43  44  45  46  47  48  49 0
 3-21G
 ****


