%nproc=1
%NoSave
%Mem=1900MB
#P OB98/GEN NMR

erre ene a

0 1
  C     -266.729    -225.582    -778.118
  O     -265.429    -225.051    -778.228
  H     -266.986    -225.662    -777.055
  H     -266.776    -226.581    -778.557
  H     -267.463    -224.928    -778.602
  P     -264.872    -224.675    -779.688
  C     -262.946    -226.317    -780.205
  O     -264.336    -226.038    -780.348
  C     -262.725    -227.282    -779.038
  O     -263.525    -228.473    -779.219
  C     -261.289    -227.773    -778.912
  O     -260.447    -226.780    -778.358
  C     -261.486    -229.007    -778.037
  O     -261.585    -228.649    -776.651
  C     -262.834    -229.553    -778.560
  N     -262.646    -230.695    -779.457
  C     -262.452    -231.935    -778.852
  O     -262.445    -232.097    -777.628
  N     -262.210    -232.979    -779.706
  C     -262.018    -232.877    -781.051
  O     -261.555    -233.794    -781.737
  C     -262.291    -231.563    -781.644
  C     -262.586    -230.543    -780.834
  O     -263.919    -223.530    -779.741
  O     -266.202    -224.373    -780.531
  H     -266.314    -223.403    -780.614
  H     -260.758    -228.184    -776.436
  H     -262.026    -233.872    -779.272
  H     -262.218    -231.458    -782.727
  H     -262.765    -229.554    -781.240
  H     -263.469    -229.878    -777.715
  H     -260.658    -229.707    -778.140
  H     -260.914    -228.091    -779.891
  H     -263.056    -226.777    -778.116
  H     -262.414    -225.379    -780.008
  H     -262.572    -226.751    -781.142
  P     -258.845    -226.888    -778.526
  C     -257.624    -227.224    -776.284
  O     -258.299    -227.858    -777.379
  O     -258.134    -225.579    -778.646
  O     -258.656    -227.760    -779.853
  H     -258.035    -227.305    -780.450
  H     -257.305    -227.967    -775.583
  H     -258.291    -226.541    -775.801
  H     -256.772    -226.691    -776.651

 6  7  8  9  10  11  12  13  14  15  16  27  31  32  33  34  35 0
 6-311+G(2d,p)
 ****
 36  37 0
 6-311+G(2d,p)
 ****
 1  2  3  4  5  17  18  19  20  21  22  23  24  25 0
 3-21G
 ****
 26  28  29  30  38  39  40  41  42  43  44  45 0
 3-21G
 ****


