%nproc=1
%NoSave
%Mem=1900MB
#P OB98/GEN NMR

erre ene a

0 1
  C      224.523      65.611    -109.220
  O      223.166      65.599    -108.825
  H      224.978      64.642    -108.998
  H      224.574      65.784    -110.297
  H      225.070      66.408    -108.709
  P      222.858      65.661    -107.252
  C      223.441      64.123    -105.245
  O      223.285      64.230    -106.651
  C      223.415      62.655    -104.817
  O      222.093      62.112    -105.104
  C      224.452      61.771    -105.527
  O      224.968      60.824    -104.581
  C      223.623      61.028    -106.562
  O      224.199      59.783    -106.942
  C      222.289      60.889    -105.830
  N      219.787      57.255    -108.370
  C      220.624      57.205    -107.308
  N      221.209      58.231    -106.658
  C      220.795      59.408    -107.160
  C      219.948      59.620    -108.233
  C      219.442      58.470    -108.863
  N      218.646      58.507    -109.985
  N      219.814      60.975    -108.485
  C      220.594      61.564    -107.593
  N      221.205      60.660    -106.775
  O      221.254      65.622    -107.214
  O      223.405      66.849    -106.536
  H      225.006      59.956    -107.467
  H      220.903      66.529    -107.283
  H      220.865      56.208    -106.944
  H      220.766      62.630    -107.524
  H      222.283      60.056    -105.119
  H      223.520      61.644    -107.458
  H      225.277      62.331    -105.976
  H      223.549      62.608    -103.728
  H      222.620      64.652    -104.747
  H      218.423      57.630    -110.432
  H      218.470      59.399    -110.429
  H      224.389      64.590    -104.948
  P      226.506      60.981    -104.145
  C      228.823      60.686    -105.296
  O      227.429      60.411    -105.327
  O      226.668      59.892    -102.990
  O      226.862      62.352    -103.669
  H      227.316      60.198    -102.323
  H      229.294      60.240    -106.147
  H      229.247      60.281    -104.401
  H      228.978      61.744    -105.316

 6  7  8  9  10  11  12  13  14  15  25  28  32  33  34  35 0
 6-311+G(2d,p)
 ****
 36  39  40 0
 6-311+G(2d,p)
 ****
 1  2  3  4  5  16  17  18  19  20  21  22  23  24 0
 3-21G
 ****
 26  27  29  30  31  37  38  41  42  43  44  45  46  47 0
 3-21G
 ****
 48 0
 3-21G
 ****


