%nproc=1
%NoSave
%Mem=1900MB
#P OB98/GEN NMR

erre ene a

0 1
  C      183.806      35.354    -155.858
  O      185.120      35.104    -155.353
  P      185.674      33.604    -155.307
  C      188.110      32.868    -154.838
  O      186.957      33.542    -154.346
  C      189.375      33.471    -154.219
  O      189.590      34.831    -154.670
  C      189.299      33.576    -152.701
  O      189.331      32.363    -151.977
  C      190.377      34.600    -152.393
  O      191.671      34.000    -152.338
  C      190.268      35.544    -153.613
  N      189.584      36.799    -153.296
  C      190.131      37.545    -152.257
  O      191.102      37.178    -151.598
  N      189.497      38.725    -151.973
  C      188.376      39.201    -152.588
  O      187.834      40.254    -152.279
  C      187.830      38.355    -153.663
  C      188.448      37.211    -153.962
  O      185.835      32.931    -156.628
  O      184.559      32.844    -154.430
  H      191.865      33.643    -153.226
  H      184.405      31.970    -154.838
  H      189.883      39.283    -151.229
  H      186.938      38.698    -154.169
  H      188.063      36.574    -154.751
  H      191.265      35.795    -153.994
  H      190.210      35.084    -151.425
  H      188.337      34.045    -152.444
  H      190.235      32.880    -154.537
  H      188.148      32.946    -155.927
  H      188.024      31.801    -154.608
  P      188.013      31.611    -151.461
  C      187.589      29.064    -151.237
  O      188.432      30.156    -150.939
  O      186.791      31.707    -152.311
  O      187.731      32.384    -150.078
  H      186.767      32.417    -149.934
  H      188.019      28.162    -150.792
  H      187.515      28.921    -152.316
  H      186.595      29.223    -150.811
  H      183.601      36.403    -155.816
  H      183.089      34.827    -155.264
  H      183.744      35.019    -156.872

 3  4  5  6  7  8  9  10  11  12  13  23  28  29  30  31  32 0
 6-311+G(2d,p)
 ****
 33  34 0
 6-311+G(2d,p)
 ****
 1  2  14  15  16  17  18  19  20  21  22  24  25  26  27 0
 3-21G
 ****
 35  36  37  38  39  40  41  42  43  44  45 0
 3-21G
 ****


