%nproc=1
%NoSave
%Mem=1900MB
#P OB98/GEN NMR

erre ene a

0 1
  C     -328.276     -17.350    -773.712
  O     -328.644     -17.029    -775.028
  P     -329.500     -18.133    -775.832
  C     -327.689     -19.931    -776.283
  O     -328.486     -18.873    -776.822
  C     -327.668     -21.110    -777.240
  O     -329.015     -21.642    -777.394
  C     -327.186     -20.760    -778.651
  O     -325.780     -20.656    -778.695
  C     -327.759     -21.957    -779.440
  O     -326.844     -23.056    -779.432
  C     -329.050     -22.288    -778.695
  N     -330.249     -21.934    -779.426
  C     -330.290     -22.323    -780.783
  O     -329.335     -22.914    -781.271
  N     -331.394     -21.981    -781.523
  C     -332.378     -21.336    -780.983
  N     -333.435     -21.027    -781.758
  C     -332.358     -20.885    -779.566
  C     -331.270     -21.229    -778.860
  O     -330.411     -17.235    -776.823
  O     -330.347     -19.018    -774.954
  H     -326.014     -22.735    -779.854
  H     -331.244     -17.692    -777.058
  H     -333.192     -20.325    -779.163
  H     -331.180     -20.938    -777.808
  H     -329.105     -23.380    -778.467
  H     -327.911     -21.705    -780.504
  H     -327.684     -19.844    -779.003
  H     -327.043     -21.901    -776.810
  H     -333.402     -21.329    -782.732
  H     -328.121     -20.265    -775.328
  H     -334.251     -20.534    -781.424
  H     -326.687     -19.554    -776.113
  P     -325.174     -19.275    -779.216
  C     -325.263     -20.384    -781.555
  O     -324.473     -19.645    -780.621
  O     -323.901     -19.065    -778.250
  O     -326.085     -18.060    -779.232
  H     -323.498     -18.200    -778.401
  H     -324.716     -20.408    -782.504
  H     -326.208     -19.856    -781.718
  H     -325.431     -21.388    -781.176
  H     -327.716     -16.541    -773.291
  H     -327.676     -18.236    -773.715
  H     -329.156     -17.517    -773.126

 3  4  5  6  7  8  9  10  11  12  13  21  23  27  28  29  30  32 0
 6-311+G(2d,p)
 ****
 34  35 0
 6-311+G(2d,p)
 ****
 1  2  14  15  16  17  18  19  20  22  24  25  26 0
 3-21G
 ****
 31  33  36  37  38  39  40  41  42  43  44  45  46 0
 3-21G
 ****


