%nproc=1
%NoSave
%Mem=1900MB
#P OB98/GEN NMR

erre ene a

0 1
  C     -891.050     749.711    -724.610
  O     -890.960     749.854    -723.200
  P     -892.010     750.779    -722.410
  C     -893.750     748.874    -722.097
  O     -893.460     750.136    -722.653
  C     -895.250     748.693    -721.924
  O     -895.760     749.780    -721.091
  C     -896.080     748.763    -723.217
  O     -897.360     748.154    -722.975
  C     -896.240     750.258    -723.407
  O     -897.310     750.578    -724.273
  C     -896.380     750.761    -721.941
  N     -895.730     752.068    -721.772
  C     -896.440     753.190    -722.176
  O     -897.600     753.126    -722.589
  N     -895.760     754.382    -722.170
  C     -894.430     754.532    -721.859
  O     -893.760     755.501    -722.146
  C     -893.810     753.361    -721.216
  C     -894.460     752.201    -721.224
  O     -892.030     752.107    -723.301
  O     -891.650     751.054    -720.995
  H     -898.150     750.427    -723.747
  H     -891.420     752.778    -722.921
  H     -896.220     755.166    -722.603
  H     -892.810     753.482    -720.814
  H     -894.000     751.313    -720.808
  H     -897.430     750.863    -721.657
  H     -895.310     750.642    -723.854
  H     -895.590     748.273    -724.072
  H     -895.450     747.745    -721.397
  H     -893.230     748.775    -721.132
  H     -893.370     748.072    -722.748
  P     -897.940     747.152    -724.087
  C     -897.880     745.205    -722.429
  O     -897.430     745.694    -723.678
  O     -897.700     747.552    -725.519
  O     -899.500     747.101    -723.735
  H     -900.000     746.774    -724.512
  H     -897.930     744.104    -722.482
  H     -898.860     745.594    -722.170
  H     -897.150     745.484    -721.647
  H     -890.272     749.062    -724.953
  H     -890.945     750.670    -725.073
  H     -892.001     749.294    -724.866

 3  4  5  6  7  8  9  10  11  12  13  23  28  29  30  31  32 0
 6-311+G(2d,p)
 ****
 33  34 0
 6-311+G(2d,p)
 ****
 1  2  14  15  16  17  18  19  20  21  22  24  25  26  27 0
 3-21G
 ****
 35  36  37  38  39  40  41  42  43  44  45 0
 3-21G
 ****


