%nproc=1
%NoSave
%Mem=1900MB
#P OB98/GEN NMR

erre ene a

0 1
  C     1075.938     922.194     -62.579
  O     1077.342     922.371     -62.639
  P     1077.957     923.620     -63.435
  C     1078.192     925.157     -61.384
  O     1077.569     924.956     -62.653
  C     1078.943     926.485     -61.354
  O     1078.062     927.574     -61.720
  C     1079.473     926.845     -59.985
  O     1080.616     926.078     -59.625
  C     1079.776     928.357     -60.181
  O     1081.013     928.539     -60.868
  C     1078.591     928.763     -61.075
  N     1077.551     929.482     -60.337
  C     1077.865     930.819     -60.003
  O     1078.966     931.289     -60.246
  N     1076.892     931.557     -59.376
  C     1075.770     931.006     -59.016
  N     1074.832     931.805     -58.452
  C     1075.490     929.574     -59.212
  C     1076.406     928.888     -59.907
  O     1077.668     923.641     -64.900
  O     1079.538     923.501     -63.157
  H     1080.007     923.551     -64.025
  H     1080.991     927.950     -61.645
  H     1074.571     929.147     -58.837
  H     1076.268     927.828     -60.125
  H     1078.948     929.408     -61.894
  H     1079.826     928.886     -59.225
  H     1078.705     926.736     -59.226
  H     1079.748     926.439     -62.079
  H     1075.050     932.800     -58.358
  H     1078.900     924.339     -61.210
  H     1073.828     931.566     -58.446
  H     1077.422     925.125     -60.598
  P     1080.426     925.042     -58.415
  C     1079.671     922.881     -59.633
  O     1079.285     923.992     -58.842
  O     1079.741     925.912     -57.282
  O     1081.691     924.413     -57.950
  H     1080.083     925.625     -56.403
  H     1078.873     922.104     -59.524
  H     1080.607     922.448     -59.296
  H     1079.736     923.167     -60.693
  H     1075.713     921.316     -62.011
  H     1075.549     922.087     -63.570
  H     1075.491     923.046     -62.111

 3  4  5  6  7  8  9  10  11  12  13  24  27  28  29  30  32 0
 6-311+G(2d,p)
 ****
 34  35 0
 6-311+G(2d,p)
 ****
 1  2  14  15  16  17  18  19  20  21  22  23  25  26 0
 3-21G
 ****
 31  33  36  37  38  39  40  41  42  43  44  45  46 0
 3-21G
 ****


