%nproc=1
%NoSave
%Mem=1900MB
#P OB98/GEN NMR

erre ene a

0 1
  C       96.512    -234.478    -632.721
  O       97.501    -235.507    -632.625
  P       98.751    -235.394    -633.633
  C       97.767    -237.132    -635.314
  O       98.236    -235.797    -635.104
  C       97.707    -237.491    -636.801
  O       96.754    -236.614    -637.462
  C       99.039    -237.370    -637.546
  O       99.127    -238.424    -638.512
  C       98.892    -236.064    -638.309
  O       99.749    -236.006    -639.450
  C       97.391    -236.106    -638.651
  N       97.583    -232.290    -641.982
  C       98.201    -233.535    -642.013
  N       98.987    -233.780    -643.081
  N       98.042    -234.442    -641.087
  C       97.195    -234.076    -640.104
  C       96.513    -232.884    -639.957
  C       96.731    -231.868    -640.971
  O       96.249    -230.723    -640.965
  N       95.748    -232.875    -638.809
  C       95.967    -234.065    -638.278
  N       96.847    -234.818    -639.000
  O       99.689    -236.616    -633.194
  O       99.479    -234.086    -633.550
  H       99.500    -235.211    -639.963
  H      100.582    -236.292    -632.970
  H       97.751    -231.621    -642.713
  H       95.533    -234.404    -637.333
  H       97.192    -236.806    -639.477
  H       99.132    -235.219    -637.656
  H       99.107    -233.150    -643.868
  H       99.930    -237.378    -636.909
  H       99.422    -234.692    -643.157
  H       97.320    -238.514    -636.886
  H       96.763    -237.227    -634.875
  H       98.436    -237.809    -634.781
  P       99.691    -239.844    -637.986
  C      102.228    -239.406    -638.442
  O      101.184    -239.549    -637.480
  O       99.877    -240.681    -639.336
  O       98.773    -240.533    -637.002
  H       99.813    -241.642    -639.149
  H      101.821    -239.305    -639.467
  H      102.873    -240.278    -638.407
  H      102.794    -238.511    -638.204
  H       95.737    -234.660    -632.006
  H       96.095    -234.475    -633.706
  H       96.964    -233.529    -632.522

 3  4  5  6  7  8  9  10  11  12  23  26  30  31  33  0
 6-311+G(2d,p)
 ****
 35  36  37  38 0
 6-311+G(2d,p)
 ****
 1  2  13  14  15  16  17  18  19  20  21  22  24  25  27  28  29 0
 3-21G
 ****
 32  34  39  40  41  42  43  44  45  46  47  48  49 0
 3-21G
 ****


