%nproc=1
%NoSave
%Mem=1900MB
#P OB98/GEN NMR

erre ene a

0 1
  C      271.784     412.259     298.359
  O      271.332     412.431     299.691
  H      272.209     413.198     298.007
  H      270.949     411.984     297.710
  H      272.553     411.485     298.325
  P      270.569     411.184     300.353
  C      269.029     412.925     301.549
  O      269.118     411.783     300.709
  C      267.592     413.435     301.590
  O      267.284     414.189     300.391
  C      266.530     412.344     301.657
  O      266.386     411.775     302.948
  C      265.304     413.144     301.242
  O      264.879     413.975     302.340
  C      265.879     413.984     300.086
  N      265.734     413.338     298.774
  C      264.664     413.768     297.977
  O      263.898     414.647     298.379
  N      264.463     413.168     296.757
  C      265.270     412.234     296.349
  N      265.025     411.673     295.142
  C      266.415     411.762     297.153
  C      266.583     412.345     298.339
  O      271.255     411.050     301.794
  O      270.549     409.927     299.553
  H      263.944     414.204     302.175
  H      270.752     410.399     302.349
  H      267.049     410.959     296.789
  H      267.405     412.048     298.983
  H      265.405     414.971     300.042
  H      264.451     412.518     300.976
  H      266.714     411.558     300.902
  H      267.507     414.129     302.445
  H      264.188     411.982     294.638
  H      269.693     413.694     301.150
  H      265.501     410.844     294.809
  H      269.348     412.663     302.563
  P      265.178     410.739     303.170
  C      266.290     410.025     305.416
  O      265.106     410.434     304.745
  O      265.745     409.370     302.550
  O      263.873     411.133     302.535
  H      265.035     408.847     302.140
  H      266.075     409.863     306.452
  H      267.035     410.787     305.321
  H      266.651     409.117     304.980

 6  7  8  9  10  11  12  13  14  15  16  26  30  31  32  33  35 0
 6-311+G(2d,p)
 ****
 37  38 0
 6-311+G(2d,p)
 ****
 1  2  3  4  5  17  18  19  20  21  22  23  24  25 0
 3-21G
 ****
 27  28  29  34  36  39  40  41  42  43  44  45  46 0
 3-21G
 ****


