%nproc=1
%NoSave
%Mem=1900MB
#P OB98/GEN NMR

erre ene a

0 1
  C     -440.366     362.809     140.440
  O     -440.302     364.048     139.765
  H     -440.993     362.923     141.326
  H     -439.367     362.494     140.754
  H     -440.807     362.049     139.788
  P     -439.342     364.127     138.483
  C     -441.056     365.041     136.758
  O     -440.273     363.939     137.190
  C     -442.535     364.727     136.969
  O     -442.812     364.596     138.383
  C     -443.477     365.812     136.474
  O     -443.671     365.775     135.068
  C     -444.745     365.471     137.237
  O     -445.511     364.459     136.570
  C     -444.195     364.957     138.581
  N     -444.358     365.943     139.645
  C     -445.651     366.096     140.135
  O     -446.614     365.452     139.714
  N     -445.816     367.048     141.102
  C     -444.845     367.879     141.581
  O     -445.070     368.751     142.409
  C     -443.499     367.683     141.016
  C     -443.318     366.741     140.084
  O     -438.514     362.759     138.562
  O     -438.448     365.322     138.439
  H     -437.601     362.943     138.847
  H     -446.295     364.298     137.135
  H     -446.748     367.176     141.471
  H     -442.704     368.326     141.372
  H     -442.342     366.588     139.645
  H     -444.717     364.040     138.884
  H     -445.386     366.343     137.345
  H     -443.122     366.802     136.796
  H     -442.762     363.769     136.481
  H     -440.884     365.222     135.692
  H     -440.763     365.933     137.317
  P     -442.891     366.866     134.177
  C     -442.309     365.031     132.381
  O     -441.853     366.029     133.281
  O     -441.990     367.566     135.295
  O     -443.806     367.775     133.433
  H     -441.797     366.967     136.038
  H     -441.471     364.592     131.881
  H     -442.963     365.474     131.659
  H     -442.837     364.275     132.924

 6  7  8  9  10  11  12  13  14  15  16  27  31  32  33  34  35 0
 6-311+G(2d,p)
 ****
 36  37 0
 6-311+G(2d,p)
 ****
 1  2  3  4  5  17  18  19  20  21  22  23  24  25 0
 3-21G
 ****
 26  28  29  30  38  39  40  41  42  43  44  45 0
 3-21G
 ****


