%nproc=1
%NoSave
%Mem=1900MB
#P OB98/GEN NMR

erre ene a

0 1
  C       56.728     -45.931     360.365
  O       56.962     -45.374     359.070
  P       55.709     -44.693     358.333
  C       55.321     -42.286     359.226
  O       55.957     -43.107     358.256
  C       55.717     -40.813     359.074
  O       57.134     -40.628     359.332
  C       55.423     -40.243     357.691
  O       55.073     -38.863     357.858
  C       56.777     -40.315     356.996
  O       56.841     -39.413     355.893
  C       57.715     -39.987     358.173
  N       59.094     -40.420     357.941
  C       59.858     -39.657     357.061
  O       59.347     -38.707     356.455
  N       61.169     -40.011     356.843
  C       61.655     -41.060     357.419
  N       62.964     -41.363     357.166
  C       60.865     -41.931     358.315
  C       59.610     -41.550     358.529
  O       54.527     -44.839     359.408
  O       55.349     -45.342     357.036
  H       56.514     -38.539     356.199
  H       53.736     -45.216     358.980
  H       61.309     -42.811     358.758
  H       58.952     -42.122     359.175
  H       57.731     -38.909     358.364
  H       56.956     -41.329     356.626
  H       54.625     -40.764     357.155
  H       55.173     -40.235     359.837
  H       63.473     -40.739     356.554
  H       55.578     -42.629     360.231
  H       63.438     -42.156     357.558
  H       54.233     -42.411     359.136
  P       53.856     -38.276     356.995
  C       52.136     -38.053     358.891
  O       53.028     -37.365     358.026
  O       52.904     -39.567     356.869
  O       54.155     -37.681     355.656
  H       52.150     -39.355     356.293
  H       51.734     -37.335     359.617
  H       52.662     -38.848     359.430
  H       51.310     -38.472     358.321
  H       57.637     -46.350     360.743
  H       55.984     -46.697     360.295
  H       56.387     -45.163     361.027

 3  4  5  6  7  8  9  10  11  12  13  21  23  27  28  29  30  32 0
 6-311+G(2d,p)
 ****
 34  35 0
 6-311+G(2d,p)
 ****
 1  2  14  15  16  17  18  19  20  22  24  25  26 0
 3-21G
 ****
 31  33  36  37  38  39  40  41  42  43  44  45  46 0
 3-21G
 ****


