%nproc=1
%NoSave
%Mem=1900MB
#P OB98/GEN NMR

erre ene a

0 1
  C     -315.193     370.472    -898.100
  O     -316.507     370.776    -897.610
  P     -317.178     372.203    -897.970
  C     -317.274     372.785    -895.460
  O     -316.888     373.223    -896.790
  C     -316.763     373.752    -894.440
  O     -315.319     373.856    -894.460
  C     -317.272     375.180    -894.580
  O     -318.622     375.283    -894.140
  C     -316.274     375.955    -893.760
  O     -316.612     375.905    -892.350
  C     -314.951     375.168    -894.020
  N     -311.038     378.365    -894.700
  C     -311.779     378.060    -893.600
  N     -312.799     377.209    -893.500
  C     -313.121     376.700    -894.730
  C     -312.510     376.964    -895.940
  C     -311.382     377.826    -895.900
  N     -310.613     378.117    -897.000
  N     -313.113     376.295    -896.960
  C     -314.127     375.627    -896.390
  N     -314.089     375.803    -895.000
  O     -318.597     372.138    -898.430
  O     -316.234     372.750    -899.190
  H     -316.012     376.552    -891.890
  H     -316.786     372.868    -900.000
  H     -311.424     378.491    -892.670
  H     -314.837     375.016    -896.890
  H     -314.372     375.033    -893.090
  H     -316.197     377.020    -894.040
  H     -317.193     375.486    -895.650
  H     -317.050     373.366    -893.420
  H     -316.851     371.768    -895.310
  H     -309.752     378.599    -896.830
  H     -310.670     377.484    -897.820
  H     -318.366     372.699    -895.440
  P     -319.491     376.584    -894.520
  C     -320.324     377.163    -892.160
  O     -319.491     377.531    -893.250
  O     -320.847     376.329    -895.150
  O     -318.520     377.378    -895.570
  H     -319.060     377.877    -896.240
  H     -321.369     377.383    -892.400
  H     -320.032     377.661    -891.260
  H     -320.248     376.057    -891.980
  H     -314.906     369.495    -897.770
  H     -314.497     371.193    -897.726
  H     -315.196     370.501    -899.170

 3  4  5  6  7  8  9  10  11  12  22  25  29  30  31  32 0
 6-311+G(2d,p)
 ****
 33  36  37 0
 6-311+G(2d,p)
 ****
 1  2  13  14  15  16  17  18  19  20  21  23  24  26 0
 3-21G
 ****
 27  28  34  35  38  39  40  41  42  43  44  45  46  47  48 0
 3-21G
 ****


