%nproc=1
%NoSave
%Mem=1900MB
#P OB98/GEN NMR

erre ene a

0 1
  C     -276.622      38.780      84.628
  O     -277.958      38.642      85.081
  P     -278.255      37.570      86.231
  C     -280.115      36.305      84.915
  O     -279.770      37.083      86.050
  C     -281.605      35.946      84.966
  O     -281.868      35.069      86.084
  C     -282.522      37.142      85.166
  O     -282.706      37.859      83.950
  C     -283.785      36.484      85.687
  O     -284.588      35.984      84.606
  C     -283.215      35.323      86.532
  N     -283.272      35.591      87.963
  C     -284.542      35.608      88.527
  O     -285.572      35.434      87.870
  N     -284.600      35.872      89.871
  C     -283.536      36.169      90.678
  O     -283.656      36.454      91.866
  C     -282.216      36.163      90.019
  C     -282.148      35.891      88.711
  O     -278.293      38.446      87.573
  O     -277.254      36.462      86.321
  H     -285.027      36.755      84.199
  H     -277.916      37.934      88.314
  H     -285.508      35.865      90.306
  H     -281.351      36.404      90.624
  H     -281.190      35.896      88.204
  H     -283.780      34.400      86.331
  H     -284.409      37.182      86.249
  H     -282.107      37.805      85.943
  H     -281.864      35.410      84.044
  H     -279.513      35.391      84.902
  H     -279.892      36.877      84.006
  P     -282.077      39.331      83.865
  C     -283.945      39.693      82.072
  O     -282.612      39.936      82.483
  O     -280.532      38.982      83.602
  O     -282.324      40.146      85.092
  H     -280.432      38.168      83.079
  H     -284.633      39.657      82.925
  H     -283.982      38.742      81.537
  H     -284.256      40.494      81.400
  H     -276.580      39.528      83.864
  H     -276.281      37.846      84.232
  H     -275.996      39.070      85.446

 3  4  5  6  7  8  9  10  11  12  13  23  28  29  30  31  32 0
 6-311+G(2d,p)
 ****
 33  34 0
 6-311+G(2d,p)
 ****
 1  2  14  15  16  17  18  19  20  21  22  24  25  26 0
 3-21G
 ****
 27  35  36  37  38  39  40  41  42  43  44  45 0
 3-21G
 ****


