%nproc=1
%NoSave
%Mem=1900MB
#P OB98/GEN NMR

erre ene a

0 1
  C     -896.690     942.699     381.172
  O     -897.840     942.753     380.347
  H     -896.670     941.728     381.693
  H     -896.710     943.495     381.923
  H     -895.780     942.784     380.569
  P     -898.060     944.127     379.557
  C     -898.960     946.484     380.197
  O     -898.440     945.244     380.651
  C     -898.850     947.536     381.283
  O     -899.690     947.212     382.413
  C     -897.440     947.741     381.830
  O     -896.680     948.616     381.007
  C     -897.730     948.334     383.213
  O     -898.030     949.745     383.106
  C     -898.970     947.548     383.633
  N     -898.620     945.637     388.307
  C     -898.830     946.930     387.887
  N     -898.950     947.885     388.849
  N     -898.930     947.291     386.628
  C     -898.740     946.265     385.780
  C     -898.520     944.935     386.053
  C     -898.470     944.551     387.439
  O     -898.370     943.402     387.883
  N     -898.390     944.181     384.912
  C     -898.510     945.075     383.942
  N     -898.720     946.341     384.412
  O     -899.450     943.889     378.787
  O     -896.980     944.505     378.597
  H     -898.210     950.105     383.992
  H     -899.410     944.310     377.898
  H     -898.600     945.417     389.285
  H     -898.470     944.839     382.870
  H     -899.660     948.152     384.243
  H     -896.870     948.254     383.865
  H     -898.610     947.717     389.794
  H     -896.930     946.777     381.962
  H     -899.020     948.835     388.537
  H     -899.230     948.484     380.865
  H     -900.000     946.351     379.925
  H     -898.410     946.793     379.308
  P     -895.110     948.736     381.287
  C     -893.530     950.358     382.542
  O     -894.860     950.033     382.219
  O     -894.540     949.187     379.848
  O     -894.470     947.467     381.756
  H     -894.070     948.429     379.426
  H     -893.516     951.232     383.159
  H     -892.981     950.547     381.643
  H     -893.081     949.542     383.069

 6  7  8  9  10  11  12  13  14  15  26  29  33  34 0
 6-311+G(2d,p)
 ****
 36  38  39  40  41 0
 6-311+G(2d,p)
 ****
 1  2  3  4  5  16  17  18  19  20  21  22  23  24  25 0
 3-21G
 ****
 27  28  30  31  32  35  37  42  43  44  45  46  47 0
 3-21G
 ****
 48  49 0
 3-21G
 ****


