%nproc=1
%NoSave
%Mem=1900MB
#P OB98/GEN NMR

erre ene a

0 1
  C     -161.233       2.966    -105.719
  O     -162.405       2.472    -106.363
  P     -162.233       1.537    -107.653
  C     -164.530       2.306    -108.716
  O     -163.656       1.271    -108.323
  C     -165.890       2.111    -108.025
  O     -165.796       2.463    -106.628
  C     -167.000       2.966    -108.628
  O     -167.620       2.330    -109.731
  C     -167.925       3.159    -107.443
  O     -168.718       1.977    -107.229
  C     -166.907       3.343    -106.292
  N     -166.376       4.701    -106.042
  C     -167.256       5.766    -105.870
  O     -168.479       5.669    -105.914
  N     -166.681       6.986    -105.625
  C     -165.362       7.220    -105.369
  O     -164.913       8.324    -105.097
  C     -164.496       6.037    -105.416
  C     -165.028       4.860    -105.755
  O     -161.826       0.119    -107.041
  O     -161.223       2.031    -108.642
  H     -169.148       1.762    -108.075
  H     -160.923      -0.124    -107.317
  H     -167.299       7.782    -105.569
  H     -163.450       6.167    -105.172
  H     -164.394       3.977    -105.793
  H     -167.329       2.990    -105.344
  H     -168.629       3.969    -107.620
  H     -166.610       3.947    -108.913
  H     -166.160       1.050    -108.088
  H     -164.662       2.314    -109.800
  H     -164.101       3.274    -108.441
  P     -167.996       3.182    -111.034
  C     -170.501       2.756    -110.683
  O     -169.396       2.586    -111.549
  O     -166.927       3.307    -112.066
  O     -168.426       4.608    -110.437
  H     -167.671       5.239    -110.465
  H     -171.410       2.455    -111.213
  H     -170.596       3.803    -110.382
  H     -170.381       2.124    -109.800
  H     -161.514       3.570    -104.881
  H     -160.668       3.556    -106.410
  H     -160.637       2.143    -105.382

 3  4  5  6  7  8  9  10  11  12  13  23  28  29  30  31  32 0
 6-311+G(2d,p)
 ****
 33  34 0
 6-311+G(2d,p)
 ****
 1  2  14  15  16  17  18  19  20  21  22  24  25  26  27 0
 3-21G
 ****
 35  36  37  38  39  40  41  42  43  44  45 0
 3-21G
 ****


