%nproc=1
%NoSave
%Mem=1900MB
#P OB98/GEN NMR

erre ene a

0 1
  C      636.290    -122.149     117.556
  O      635.556    -123.358     117.412
  P      635.942    -124.318     116.183
  C      633.901    -125.830     116.711
  O      634.569    -125.029     115.747
  C      632.509    -126.222     116.213
  O      631.613    -125.109     116.355
  C      632.453    -126.612     114.747
  O      632.877    -127.950     114.534
  C      630.968    -126.452     114.455
  O      630.260    -127.625     114.889
  C      630.594    -125.240     115.328
  N      628.210    -122.704     111.642
  C      627.984    -123.984     112.127
  N      626.969    -124.671     111.569
  N      628.701    -124.539     113.077
  C      629.657    -123.718     113.565
  C      629.975    -122.434     113.171
  C      629.208    -121.854     112.086
  O      629.403    -120.752     111.574
  N      631.005    -121.917     113.915
  C      631.285    -122.863     114.795
  N      630.516    -123.995     114.597
  O      636.760    -125.502     116.888
  O      636.732    -123.668     115.096
  H      630.442    -128.327     114.242
  H      637.371    -125.916     116.245
  H      627.614    -122.326     110.931
  H      632.031    -122.789     115.569
  H      629.639    -125.404     115.845
  H      630.755    -126.322     113.390
  H      626.299    -124.252     110.936
  H      633.028    -125.906     114.128
  H      626.761    -125.593     111.938
  H      632.140    -127.045     116.844
  H      633.792    -125.265     117.647
  H      634.504    -126.722     116.909
  P      633.337    -128.331     113.040
  C      633.499    -130.839     113.714
  O      632.927    -129.869     112.851
  O      634.935    -128.367     113.145
  O      632.855    -127.387     111.983
  H      635.334    -128.187     112.272
  H      633.626    -130.444     114.724
  H      634.469    -131.147     113.318
  H      632.835    -131.709     113.757
  H      635.930    -121.613     118.409
  H      636.165    -121.549     116.679
  H      637.327    -122.375     117.689

 3  4  5  6  7  8  9  10  11  12  23  26  30  31  33  0
 6-311+G(2d,p)
 ****
 35  36  37  38 0
 6-311+G(2d,p)
 ****
 1  2  13  14  15  16  17  18  19  20  21  22  24  25  27  28  29 0
 3-21G
 ****
 32  34  39  40  41  42  43  44  45  46  47  48  49 0
 3-21G
 ****


