%nproc=1
%NoSave
%Mem=1900MB
#P OB98/GEN NMR

erre ene a

0 1
  C      597.715    -899.308      36.128
  O      596.735    -898.458      35.520
  P      595.962    -897.298      36.312
  C      596.514    -895.588      34.461
  O      596.535    -895.858      35.853
  C      596.871    -894.118      34.170
  O      595.758    -893.248      34.540
  C      598.124    -893.618      34.915
  O      598.823    -892.768      34.005
  C      597.510    -892.828      36.060
  O      598.402    -891.918      36.667
  C      596.328    -892.178      35.328
  N      595.311    -891.578      36.178
  C      595.151    -890.188      36.113
  O      595.878    -889.488      35.410
  N      594.166    -889.598      36.875
  C      593.413    -890.328      37.640
  N      592.455    -889.688      38.360
  C      593.564    -891.788      37.751
  C      594.517    -892.338      37.006
  O      595.954    -897.478      37.795
  O      594.466    -897.308      35.740
  H      593.839    -897.098      36.461
  H      598.852    -891.418      35.960
  H      592.913    -892.358      38.397
  H      594.665    -893.418      37.007
  H      596.703    -891.428      34.616
  H      597.173    -893.528      36.830
  H      598.794    -894.418      35.235
  H      597.003    -894.018      33.087
  H      592.377    -888.678      38.244
  H      595.504    -895.778      34.084
  H      591.810    -890.158      38.976
  H      597.209    -896.268      33.951
  P      600.318    -893.128      33.556
  C      599.637    -894.848      31.724
  O      600.290    -894.618      32.952
  O      601.032    -893.368      34.977
  O      601.051    -892.088      32.777
  H      601.995    -893.208      34.882
  H      600.263    -895.498      31.106
  H      599.431    -893.928      31.173
  H      598.690    -895.368      31.925
  H      598.087    -900.000      35.401
  H      597.267    -899.847      36.937
  H      598.522    -898.713      36.500

 3  4  5  6  7  8  9  10  11  12  13  24  27  28  29  30  32 0
 6-311+G(2d,p)
 ****
 34  35 0
 6-311+G(2d,p)
 ****
 1  2  14  15  16  17  18  19  20  21  22  23  25  26 0
 3-21G
 ****
 31  33  36  37  38  39  40  41  42  43  44  45  46 0
 3-21G
 ****


