%nproc=1
%NoSave
%Mem=1900MB
#P OB98/GEN NMR

erre ene a

0 1
  C      205.770    -182.747       8.682
  O      205.186    -181.545       9.155
  P      203.601    -181.291       9.073
  C      203.777    -179.277       7.460
  O      203.353    -180.617       7.640
  C      203.606    -178.858       5.999
  O      204.082    -177.494       5.848
  C      204.374    -179.729       4.998
  O      203.579    -179.810       3.806
  C      205.634    -178.927       4.745
  O      206.264    -179.263       3.516
  C      205.084    -177.497       4.809
  N      206.123    -176.507       5.078
  C      207.085    -176.290       4.091
  O      207.068    -176.928       3.040
  N      208.054    -175.343       4.315
  C      208.111    -174.734       5.457
  N      209.052    -173.763       5.607
  C      207.182    -175.012       6.567
  C      206.211    -175.881       6.302
  O      203.027    -180.540      10.225
  O      202.979    -182.746       8.866
  H      207.019    -178.661       3.384
  H      202.836    -183.231       9.718
  H      207.285    -174.496       7.512
  H      205.469    -176.131       7.048
  H      204.569    -177.247       3.876
  H      206.353    -179.111       5.553
  H      204.564    -180.738       5.373
  H      202.534    -178.855       5.762
  H      209.553    -173.480       4.771
  H      204.835    -179.209       7.723
  H      208.953    -173.041       6.314
  H      203.211    -178.616       8.128
  P      203.919    -180.963       2.741
  C      204.932    -179.348       0.981
  O      205.137    -180.455       1.831
  O      202.675    -180.845       1.729
  O      204.007    -182.356       3.274
  H      202.540    -181.705       1.293
  H      205.866    -179.142       0.446
  H      204.663    -178.463       1.560
  H      204.153    -179.567       0.248
  H      206.829    -182.711       8.830
  H      205.559    -182.860       7.639
  H      205.362    -183.577       9.220

 3  4  5  6  7  8  9  10  11  12  13  23  27  28  29  30  32 0
 6-311+G(2d,p)
 ****
 34  35 0
 6-311+G(2d,p)
 ****
 1  2  14  15  16  17  18  19  20  21  22  24  25  26 0
 3-21G
 ****
 31  33  36  37  38  39  40  41  42  43  44  45  46 0
 3-21G
 ****


