%nproc=1
%NoSave
%Mem=1900MB
#P OB98/GEN NMR

erre ene a

0 1
  C      496.771    -894.115    -897.150
  O      495.534    -893.495    -897.440
  H      496.999    -893.955    -896.080
  H      497.580    -893.695    -897.740
  H      496.694    -895.195    -897.330
  P      495.034    -893.485    -898.960
  C      492.644    -894.465    -898.810
  O      494.011    -894.705    -899.110
  C      492.270    -895.085    -897.460
  O      493.048    -894.455    -896.400
  C      490.758    -894.935    -897.100
  O      490.411    -896.035    -896.270
  C      490.799    -893.645    -896.260
  O      489.623    -893.455    -895.550
  C      492.100    -893.885    -895.450
  N      492.593    -892.645    -894.860
  C      492.061    -892.325    -893.590
  O      491.234    -893.085    -893.060
  N      492.491    -891.185    -892.960
  C      493.320    -890.375    -893.590
  N      493.678    -889.255    -892.940
  C      493.857    -890.645    -894.950
  C      493.434    -891.795    -895.520
  O      496.106    -893.415    -900.000
  O      494.068    -892.195    -899.040
  H      488.847    -893.485    -896.140
  H      494.516    -891.465    -899.510
  H      494.504    -889.935    -895.410
  H      493.776    -892.075    -896.510
  H      491.934    -894.615    -894.670
  H      490.918    -892.745    -896.910
  H      490.113    -894.855    -897.970
  H      492.554    -896.135    -897.460
  H      493.272    -889.095    -892.030
  H      492.042    -894.925    -899.620
  H      494.290    -888.555    -893.330
  H      492.450    -893.385    -898.780
  P      489.738    -897.365    -896.890
  C      491.031    -899.245    -895.650
  O      490.839    -898.545    -896.900
  O      489.086    -897.185    -898.210
  O      488.668    -897.845    -895.790
  H      487.954    -898.305    -896.220
  H      491.779    -900.000    -895.775
  H      490.110    -899.701    -895.352
  H      491.346    -898.552    -894.898

 6  7  8  9  10  11  12  13  14  15  16  26  30  31  32  33  35 0
 6-311+G(2d,p)
 ****
 37  38 0
 6-311+G(2d,p)
 ****
 1  2  3  4  5  17  18  19  20  21  22  23  24  25 0
 3-21G
 ****
 27  28  29  34  36  39  40  41  42  43  44  45  46 0
 3-21G
 ****


