%nproc=1
%NoSave
%Mem=1900MB
#P OB98/GEN NMR

erre ene a

0 1
  C     -334.472    -685.483    -178.936
  O     -335.209    -685.903    -180.066
  H     -333.817    -686.293    -178.624
  H     -335.149    -685.249    -178.112
  H     -333.860    -684.609    -179.172
  P     -336.258    -684.876    -180.720
  C     -335.920    -684.766    -183.291
  O     -335.495    -684.308    -182.014
  C     -334.812    -685.554    -183.972
  O     -334.537    -686.787    -183.271
  C     -335.115    -686.003    -185.400
  O     -335.067    -684.936    -186.348
  C     -334.017    -687.010    -185.611
  O     -332.765    -686.334    -185.828
  C     -334.027    -687.741    -184.239
  N     -334.849    -688.952    -184.260
  C     -334.153    -690.180    -184.255
  O     -332.934    -690.199    -184.258
  N     -334.887    -691.345    -184.283
  C     -336.201    -691.297    -184.358
  N     -336.868    -692.480    -184.386
  C     -336.952    -690.024    -184.377
  C     -336.224    -688.911    -184.330
  O     -336.824    -683.839    -179.800
  O     -337.372    -685.817    -181.389
  H     -332.670    -685.673    -185.126
  H     -338.059    -685.228    -181.803
  H     -338.031    -690.037    -184.456
  H     -336.719    -687.942    -184.337
  H     -333.008    -688.006    -183.930
  H     -334.187    -687.670    -186.463
  H     -336.095    -686.511    -185.446
  H     -333.908    -684.945    -183.924
  H     -336.305    -693.333    -184.381
  H     -336.203    -683.887    -183.890
  H     -337.871    -692.538    -184.519
  H     -336.806    -685.404    -183.183
  P     -336.426    -684.594    -187.146
  C     -336.536    -682.088    -186.425
  O     -337.117    -683.380    -186.360
  O     -337.364    -685.839    -186.814
  O     -336.263    -684.365    -188.607
  H     -337.344    -686.493    -187.560
  H     -337.122    -681.404    -185.847
  H     -336.507    -681.761    -187.443
  H     -335.541    -682.124    -186.033

 6  7  8  9  10  11  12  13  14  15  16  26  30  31  32  33  35 0
 6-311+G(2d,p)
 ****
 37  38 0
 6-311+G(2d,p)
 ****
 1  2  3  4  5  17  18  19  20  21  22  23  24  25 0
 3-21G
 ****
 27  28  29  34  36  39  40  41  42  43  44  45  46 0
 3-21G
 ****


