%nproc=1
%NoSave
%Mem=1900MB
#P OB98/GEN NMR

erre ene a

0 1
  C     -235.560     269.249     373.033
  O     -234.476     268.404     373.360
  H     -235.697     269.236     371.950
  H     -235.349     270.276     373.347
  H     -236.482     268.899     373.506
  P     -234.140     268.135     374.904
  C     -232.804     269.415     376.698
  O     -233.563     269.508     375.499
  C     -231.383     269.916     376.456
  O     -230.714     269.081     375.483
  C     -231.313     271.336     375.898
  O     -231.571     272.287     376.913
  C     -229.897     271.349     375.341
  O     -228.934     271.549     376.387
  C     -229.778     269.915     374.764
  N     -230.028     269.863     373.318
  C     -228.956     270.215     372.502
  O     -227.859     270.561     372.937
  N     -229.207     270.201     371.154
  C     -230.421     269.965     370.574
  O     -230.649     270.176     369.386
  C     -231.488     269.526     371.480
  C     -231.254     269.507     372.794
  O     -233.314     266.927     375.186
  O     -235.585     268.031     375.589
  H     -235.808     267.091     375.731
  H     -228.082     271.730     375.949
  H     -228.455     270.501     370.555
  H     -232.449     269.267     371.048
  H     -232.037     269.216     373.484
  H     -228.777     269.507     374.954
  H     -229.747     272.142     374.606
  H     -232.022     271.448     375.067
  H     -230.824     269.843     377.400
  H     -232.770     268.367     377.010
  H     -233.295     270.004     377.479
  P     -232.245     273.698     376.569
  C     -231.475     275.998     375.742
  O     -231.135     274.627     375.880
  O     -232.973     274.343     377.702
  O     -233.247     273.373     375.359
  H     -234.141     273.700     375.585
  H     -230.667     276.520     375.273
  H     -231.659     276.419     376.708
  H     -232.355     276.088     375.140

 6  7  8  9  10  11  12  13  14  15  16  27  31  32  33  34  35 0
 6-311+G(2d,p)
 ****
 36  37 0
 6-311+G(2d,p)
 ****
 1  2  3  4  5  17  18  19  20  21  22  23  24  25 0
 3-21G
 ****
 26  28  29  30  38  39  40  41  42  43  44  45 0
 3-21G
 ****


