%nproc=1
%NoSave
%Mem=1900MB
#P OB98/GEN NMR

erre ene a

0 1
  C     -187.932     168.957      20.497
  O     -188.166     170.264      20.982
  H     -186.857     168.761      20.520
  H     -188.278     168.873      19.463
  H     -188.437     168.212      21.120
  P     -189.676     170.733      21.244
  C     -191.733     171.284      19.787
  O     -190.404     170.784      19.814
  C     -192.324     171.124      18.384
  O     -192.469     169.723      18.064
  C     -193.709     171.734      18.218
  O     -193.634     173.144      18.114
  C     -194.185     171.020      16.962
  O     -193.627     171.634      15.785
  C     -193.599     169.604      17.174
  N     -194.578     168.649      17.693
  C     -195.712     168.437      16.918
  O     -195.925     169.034      15.864
  N     -196.610     167.516      17.407
  C     -196.520     166.873      18.604
  O     -197.380     166.101      19.024
  C     -195.319     167.164      19.405
  C     -194.416     168.023      18.917
  O     -189.843     171.964      22.075
  O     -190.350     169.457      21.945
  H     -194.031     171.179      15.019
  H     -190.397     169.597      22.909
  H     -197.441     167.361      16.863
  H     -195.216     166.672      20.364
  H     -193.522     168.252      19.490
  H     -193.208     169.207      16.226
  H     -195.268     171.041      16.847
  H     -194.359     171.437      19.055
  H     -191.615     171.559      17.668
  H     -191.714     172.350      20.054
  H     -192.333     170.738      20.525
  P     -194.922     174.053      18.387
  C     -197.162     174.493      17.220
  O     -196.064     173.598      17.351
  O     -194.667     175.525      18.425
  O     -195.479     173.530      19.795
  H     -195.278     174.181      20.491
  H     -197.860     174.099      16.511
  H     -196.808     175.444      16.881
  H     -197.643     174.609      18.169

 6  7  8  9  10  11  12  13  14  15  16  26  31  32  33  34  35 0
 6-311+G(2d,p)
 ****
 36  37 0
 6-311+G(2d,p)
 ****
 1  2  3  4  5  17  18  19  20  21  22  23  24  25 0
 3-21G
 ****
 27  28  29  30  38  39  40  41  42  43  44  45 0
 3-21G
 ****


