%nproc=1
%NoSave
%Mem=1900MB
#P OB98/GEN NMR

erre ene a

0 1
  C      327.507     396.203     580.286
  O      326.819     397.226     579.562
  P      327.673     398.354     578.807
  C      326.141     400.406     579.108
  O      326.649     399.435     578.200
  C      325.002     401.201     578.471
  O      325.400     401.774     577.211
  C      323.781     400.353     578.154
  O      323.064     400.042     579.341
  C      323.044     401.229     577.162
  O      322.263     402.244     577.846
  C      324.203     401.897     576.404
  N      324.409     401.330     575.070
  C      324.331     402.240     574.001
  O      324.071     403.427     574.214
  N      324.549     401.776     572.722
  C      324.812     400.520     572.536
  N      325.009     400.117     571.252
  C      324.886     399.537     573.632
  C      324.674     400.006     574.863
  O      328.711     397.848     577.852
  O      328.352     399.164     580.020
  H      321.592     401.757     578.374
  H      329.204     399.523     579.714
  H      325.115     398.494     573.417
  H      324.710     399.342     575.721
  H      324.019     402.979     576.281
  H      322.349     400.667     576.544
  H      324.093     399.420     577.656
  H      324.727     402.011     579.150
  H      324.945     400.814     570.515
  H      326.943     401.083     579.405
  H      325.270     399.169     571.004
  H      325.809     399.889     580.017
  P      322.826     398.492     579.686
  C      320.460     398.590     580.727
  O      321.842     398.413     580.955
  O      324.250     398.045     580.302
  O      322.454     397.628     578.514
  H      324.429     397.121     580.060
  H      319.914     398.198     581.588
  H      320.120     398.061     579.838
  H      320.241     399.653     580.625
  H      326.795     395.537     580.726
  H      328.101     396.649     581.056
  H      328.140     395.657     579.618

 3  4  5  6  7  8  9  10  11  12  13  23  27  28  29  30  32 0
 6-311+G(2d,p)
 ****
 34  35 0
 6-311+G(2d,p)
 ****
 1  2  14  15  16  17  18  19  20  21  22  24  25  26 0
 3-21G
 ****
 31  33  36  37  38  39  40  41  42  43  44  45  46 0
 3-21G
 ****


