%nproc=1
%NoSave
%Mem=1900MB
#P OB98/GEN NMR

erre ene a

0 1
  C     -555.637     467.173     -78.326
  O     -556.074     468.192     -79.207
  P     -556.477     467.760     -80.703
  C     -556.191     468.861     -83.039
  O     -555.715     468.760     -81.701
  C     -555.735     470.179     -83.675
  O     -556.360     471.282     -82.958
  C     -554.216     470.412     -83.650
  O     -553.890     471.120     -84.854
  C     -554.054     471.299     -82.429
  O     -552.815     471.986     -82.380
  C     -555.292     472.181     -82.562
  N     -553.656     475.510     -79.040
  C     -553.105     475.085     -80.196
  N     -553.603     474.198     -81.088
  C     -554.804     473.755     -80.689
  C     -555.489     474.087     -79.530
  C     -554.858     475.007     -78.679
  N     -555.420     475.441     -77.492
  N     -556.682     473.403     -79.449
  C     -556.725     472.672     -80.545
  N     -555.630     472.868     -81.338
  O     -558.004     468.226     -80.809
  O     -556.314     466.306     -81.003
  H     -552.768     472.546     -81.584
  H     -558.535     467.579     -81.314
  H     -552.132     475.501     -80.443
  H     -557.522     471.987     -80.807
  H     -555.180     472.935     -83.350
  H     -554.109     470.683     -81.531
  H     -553.641     469.482     -83.609
  H     -556.109     470.209     -84.703
  H     -557.280     468.840     -83.037
  H     -554.810     475.945     -76.858
  H     -556.208     474.907     -77.135
  H     -555.833     468.001     -83.615
  P     -552.497     470.796     -85.589
  C     -550.259     472.037     -85.388
  O     -551.404     471.576     -84.703
  O     -552.608     471.743     -86.874
  O     -552.234     469.358     -85.887
  H     -552.840     472.655     -86.632
  H     -549.651     472.631     -84.693
  H     -550.546     472.668     -86.234
  H     -549.662     471.186     -85.737
  H     -555.404     467.601     -77.373
  H     -554.764     466.703     -78.729
  H     -556.412     466.445     -78.210

 3  4  5  6  7  8  9  10  11  12  22  25  29  30  31  32 0
 6-311+G(2d,p)
 ****
 33  36  37 0
 6-311+G(2d,p)
 ****
 1  2  13  14  15  16  17  18  19  20  21  23  24  26 0
 3-21G
 ****
 27  28  34  35  38  39  40  41  42  43  44  45  46  47  48 0
 3-21G
 ****


