%nproc=1
%NoSave
%Mem=1900MB
#P OB98/GEN NMR

erre ene a

0 1
  C      178.397    -153.318     -64.520
  O      179.081    -152.074     -64.695
  P      178.221    -150.731     -64.529
  C      178.085    -150.129     -67.062
  O      177.385    -150.493     -65.877
  C      177.120    -150.076     -68.250
  O      176.063    -149.127     -68.018
  C      177.785    -149.629     -69.539
  O      178.521    -150.691     -70.114
  C      176.589    -149.186     -70.374
  O      176.051    -150.270     -71.152
  C      175.570    -148.718     -69.306
  N      175.326    -147.287     -69.349
  C      174.642    -146.818     -70.479
  O      174.303    -147.600     -71.368
  N      174.381    -145.479     -70.576
  C      174.794    -144.670     -69.644
  N      174.513    -143.348     -69.799
  C      175.545    -145.121     -68.456
  C      175.776    -146.431     -68.374
  O      179.329    -149.576     -64.577
  O      177.416    -150.676     -63.270
  H      175.741    -150.932     -70.499
  H      179.063    -148.828     -64.007
  H      175.875    -144.410     -67.710
  H      176.321    -146.852     -67.534
  H      174.608    -149.231     -69.448
  H      176.864    -148.397     -71.082
  H      178.438    -148.770     -69.346
  H      176.674    -151.071     -68.382
  H      173.998    -143.075     -70.628
  H      178.880    -150.850     -67.263
  H      174.793    -142.632     -69.139
  H      178.569    -149.160     -66.904
  P      180.112    -150.685     -69.932
  C      180.306    -149.700     -72.296
  O      180.642    -149.547     -70.926
  O      180.544    -152.025     -70.692
  O      180.635    -150.640     -68.534
  H      181.498    -152.184     -70.570
  H      180.541    -148.776     -72.820
  H      179.236    -149.908     -72.406
  H      180.892    -150.515     -72.730
  H      179.085    -154.126     -64.658
  H      177.608    -153.395     -65.238
  H      177.986    -153.364     -63.533

 3  4  5  6  7  8  9  10  11  12  13  21  23  27  28  29  30  32 0
 6-311+G(2d,p)
 ****
 34  35 0
 6-311+G(2d,p)
 ****
 1  2  14  15  16  17  18  19  20  22  24  25  26 0
 3-21G
 ****
 31  33  36  37  38  39  40  41  42  43  44  45  46 0
 3-21G
 ****


