%nproc=1
%NoSave
%Mem=1900MB
#P OB98/GEN NMR

erre ene a

0 1
  C      -56.001     -53.258      81.719
  O      -57.000     -53.460      80.715
  P      -58.480     -53.836      81.212
  C      -59.937     -51.772      81.883
  O      -59.402     -52.573      80.844
  C      -60.526     -50.473      81.321
  O      -59.450     -49.607      80.849
  C      -61.506     -50.673      80.159
  O      -62.539     -49.688      80.311
  C      -60.659     -50.362      78.939
  O      -61.451     -50.002      77.816
  C      -59.770     -49.243      79.491
  N      -58.565     -49.032      78.693
  C      -58.619     -48.044      77.718
  O      -59.645     -47.416      77.460
  N      -57.465     -47.832      77.014
  C      -56.311     -48.554      77.135
  O      -55.304     -48.321      76.477
  C      -56.350     -49.661      78.103
  C      -57.458     -49.846      78.824
  O      -58.311     -53.759      82.798
  O      -58.954     -55.151      80.685
  H      -57.717     -53.047      83.090
  H      -60.861     -49.787      77.065
  H      -57.473     -47.098      76.323
  H      -55.473     -50.291      78.186
  H      -57.528     -50.663      79.529
  H      -60.326     -48.298      79.530
  H      -60.056     -51.237      78.671
  H      -61.948     -51.673      80.141
  H      -61.028     -49.946      82.142
  H      -59.150     -51.519      82.600
  H      -60.693     -52.346      82.428
  P      -63.950     -50.155      80.931
  C      -63.826     -50.233      83.544
  O      -64.075     -49.482      82.378
  O      -63.609     -51.685      81.275
  O      -65.120     -50.016      80.015
  H      -62.763     -51.793      81.737
  H      -63.730     -49.549      84.390
  H      -62.899     -50.806      83.456
  H      -64.661     -50.913      83.735
  H      -55.070     -53.015      81.252
  H      -55.889     -54.152      82.295
  H      -56.298     -52.455      82.361

 3  4  5  6  7  8  9  10  11  12  13  24  28  29  30  31  32 0
 6-311+G(2d,p)
 ****
 33  34 0
 6-311+G(2d,p)
 ****
 1  2  14  15  16  17  18  19  20  21  22  23  25  26  27 0
 3-21G
 ****
 35  36  37  38  39  40  41  42  43  44  45 0
 3-21G
 ****


