%nproc=1
%NoSave
%Mem=1900MB
#P OB98/GEN NMR

erre ene a

0 1
  C       10.242     -74.073     -34.735
  O        9.211     -74.640     -33.953
  H        9.790     -73.426     -35.491
  H       10.815     -74.854     -35.239
  H       10.904     -73.467     -34.110
  P        9.603     -75.688     -32.806
  C        8.418     -76.591     -30.698
  O        8.260     -75.994     -31.981
  C        7.111     -76.488     -29.904
  O        6.867     -75.085     -29.636
  C        5.908     -77.048     -30.678
  O        5.169     -78.017     -29.938
  C        5.170     -75.794     -31.132
  O        3.786     -75.970     -31.348
  C        5.523     -74.772     -30.046
  N        5.430     -73.382     -30.488
  C        4.250     -72.700     -30.205
  O        3.292     -73.166     -29.592
  N        4.195     -71.405     -30.652
  C        5.170     -70.749     -31.341
  O        5.065     -69.585     -31.710
  C        6.383     -71.529     -31.629
  C        6.456     -72.790     -31.198
  O       10.779     -75.317     -31.967
  O        9.856     -77.055     -33.600
  H        3.678     -76.558     -32.123
  H       10.815     -77.209     -33.687
  H        3.349     -70.898     -30.443
  H        7.174     -71.042     -32.183
  H        7.337     -73.394     -31.391
  H        4.868     -74.889     -29.182
  H        5.604     -75.467     -32.085
  H        6.238     -77.604     -31.563
  H        7.243     -76.991     -28.940
  H        9.221     -76.061     -30.177
  H        8.700     -77.643     -30.813
  P        5.221     -79.591     -30.199
  C        4.351     -81.733     -28.963
  O        4.526     -80.325     -28.958
  O        6.536     -80.127     -30.652
  O        4.167     -79.802     -31.404
  H        4.503     -80.549     -31.940
  H        3.872     -82.036     -28.055
  H        5.305     -82.211     -29.040
  H        3.744     -82.014     -29.798

 6  7  8  9  10  11  12  13  14  15  16  26  31  32  33  34  35 0
 6-311+G(2d,p)
 ****
 36  37 0
 6-311+G(2d,p)
 ****
 1  2  3  4  5  17  18  19  20  21  22  23  24  25 0
 3-21G
 ****
 27  28  29  30  38  39  40  41  42  43  44  45 0
 3-21G
 ****


