%nproc=1
%NoSave
%Mem=1900MB
#P OB98/GEN NMR

erre ene a

0 1
  C      112.699     -19.855     -76.619
  O      113.094     -19.090     -75.493
  P      114.503     -18.320     -75.565
  C      113.816     -15.986     -74.633
  O      114.483     -17.216     -74.401
  C      114.565     -14.834     -73.960
  O      114.261     -14.852     -72.541
  C      116.091     -14.892     -74.096
  O      116.558     -13.539     -74.138
  C      116.526     -15.541     -72.796
  O      117.888     -15.273     -72.477
  C      115.513     -14.942     -71.827
  N      115.588     -14.989     -66.772
  C      115.911     -13.972     -67.652
  N      116.243     -12.786     -67.100
  N      115.906     -14.107     -68.952
  C      115.538     -15.346     -69.356
  C      115.234     -16.442     -68.585
  C      115.206     -16.269     -67.151
  O      114.842     -17.116     -66.338
  N      114.997     -17.549     -69.354
  C      115.077     -17.102     -70.591
  N      115.357     -15.763     -70.643
  O      114.371     -17.460     -76.905
  O      115.718     -19.192     -75.558
  H      118.001     -14.302     -72.441
  H      114.755     -17.935     -77.667
  H      115.591     -14.820     -65.780
  H      114.937     -17.694     -71.482
  H      115.793     -13.933     -71.498
  H      116.407     -16.629     -72.868
  H      116.238     -12.603     -66.109
  H      116.431     -15.441     -74.979
  H      116.452     -12.015     -67.724
  H      114.180     -13.890     -74.364
  H      112.810     -16.044     -74.206
  H      113.725     -15.815     -75.710
  P      117.557     -13.127     -75.322
  C      115.996     -11.127     -75.836
  O      117.320     -11.577     -75.638
  O      116.920     -13.863     -76.597
  O      118.976     -13.549     -75.121
  H      117.629     -14.120     -77.215
  H      115.957     -10.053     -75.641
  H      115.293     -11.632     -75.166
  H      115.701     -11.308     -76.872
  H      111.748     -20.306     -76.428
  H      113.425     -20.619     -76.804
  H      112.625     -19.218     -77.475

 3  4  5  6  7  8  9  10  11  12  23  26  30  31 0
 6-311+G(2d,p)
 ****
 33  35  36  37  38 0
 6-311+G(2d,p)
 ****
 1  2  13  14  15  16  17  18  19  20  21  22  24  25 0
 3-21G
 ****
 27  28  29  32  34  39  40  41  42  43  44  45  46  47  48  49 0
 3-21G
 ****


