%nproc=1
%NoSave
%Mem=1900MB
#P OB98/GEN NMR

erre ene a

0 1
  C       95.932     -61.061     443.313
  O       96.818     -62.051     442.832
  H       95.279     -61.512     444.066
  H       95.314     -60.686     442.493
  H       96.486     -60.241     443.771
  P       97.929     -61.577     441.774
  C       99.886     -62.595     443.140
  O       99.159     -62.603     441.919
  C      100.951     -63.691     443.143
  O      100.312     -64.967     443.450
  C      101.692     -63.856     441.806
  O      103.048     -64.217     442.093
  C      101.001     -65.063     441.185
  O      101.804     -65.704     440.199
  C      100.741     -65.900     442.436
  N       99.777     -70.068     439.785
  C      100.908     -69.273     439.831
  N      101.944     -69.646     439.052
  N      101.016     -68.206     440.579
  C       99.914     -67.972     441.334
  C       98.733     -68.676     441.377
  C       98.619     -69.838     440.522
  O       97.638     -70.569     440.426
  N       97.849     -68.096     442.251
  C       98.489     -67.049     442.738
  N       99.749     -66.932     442.210
  O       98.485     -60.226     442.432
  O       97.439     -61.362     440.383
  H      101.454     -66.608     440.064
  H       98.005     -59.457     442.076
  H       99.743     -70.872     439.184
  H       98.093     -66.349     443.461
  H      101.647     -66.403     442.796
  H      100.058     -64.757     440.715
  H      101.954     -70.479     438.485
  H      101.669     -62.970     441.165
  H      102.798     -69.101     439.104
  H      101.656     -63.489     443.958
  H       99.190     -62.768     443.969
  H      100.358     -61.615     443.273
  P      104.210     -63.239     441.587
  C      105.664     -62.815     443.701
  O      105.515     -63.515     442.473
  O      103.722     -61.806     442.108
  O      104.418     -63.245     440.109
  H      104.070     -61.104     441.528
  H      106.580     -63.108     444.170
  H      104.843     -63.048     444.346
  H      105.681     -61.762     443.512

 6  7  8  9  10  11  12  13  14  15  26  29  33  34 0
 6-311+G(2d,p)
 ****
 36  38  39  40  41 0
 6-311+G(2d,p)
 ****
 1  2  3  4  5  16  17  18  19  20  21  22  23  24  25 0
 3-21G
 ****
 27  28  30  31  32  35  37  42  43  44  45  46  47 0
 3-21G
 ****
 48  49 0
 3-21G
 ****


