%nproc=1
%NoSave
%Mem=1900MB
#P OB98/GEN NMR

erre ene a

0 1
  C      -38.427    -689.517     122.064
  O      -39.353    -688.950     122.971
  H      -38.067    -690.462     122.478
  H      -37.580    -688.843     121.923
  H      -38.912    -689.713     121.103
  P      -40.015    -687.554     122.533
  C      -38.109    -686.424     123.905
  O      -38.870    -686.446     122.710
  C      -37.598    -685.005     124.191
  O      -38.432    -684.410     125.233
  C      -36.147    -684.954     124.705
  O      -35.579    -683.698     124.298
  C      -36.351    -684.964     126.209
  O      -35.168    -684.599     126.884
  C      -37.549    -684.022     126.308
  N      -38.018    -681.917     130.943
  C      -37.279    -681.569     129.869
  N      -37.213    -682.169     128.664
  C      -38.039    -683.230     128.618
  C      -38.861    -683.702     129.628
  C      -38.829    -682.999     130.851
  N      -39.572    -683.359     131.941
  N      -39.559    -684.822     129.209
  C      -39.165    -685.018     127.966
  N      -38.245    -684.086     127.570
  O      -41.036    -687.241     123.726
  O      -40.695    -687.555     121.204
  H      -35.340    -684.482     127.844
  H      -41.931    -687.552     123.490
  H      -36.646    -680.685     129.996
  H      -39.509    -685.811     127.314
  H      -37.260    -682.976     126.139
  H      -36.614    -685.969     126.559
  H      -35.526    -685.770     124.327
  H      -37.729    -684.391     123.293
  H      -37.258    -687.109     123.790
  H      -38.730    -686.762     124.743
  H      -39.486    -682.806     132.786
  H      -40.170    -684.170     131.890
  P      -34.350    -683.687     123.266
  C      -32.329    -683.570     124.926
  O      -33.069    -684.336     123.983
  O      -33.961    -682.131     123.228
  O      -34.649    -684.184     121.891
  H      -33.556    -681.916     122.372
  H      -31.516    -684.155     125.301
  H      -32.968    -683.287     125.736
  H      -31.947    -682.691     124.450

 6  7  8  9  10  11  12  13  14  15  25  28  32  33  34  35 0
 6-311+G(2d,p)
 ****
 36  37  40 0
 6-311+G(2d,p)
 ****
 1  2  3  4  5  16  17  18  19  20  21  22  23  24 0
 3-21G
 ****
 26  27  29  30  31  38  39 41  42  43  44  45  46  47  48 0
 3-21G
 ****


