%nproc=1
%NoSave
%Mem=1900MB
#P OB98/GEN NMR

erre ene a

0 1
  C       82.408    -323.850     152.254
  O       81.191    -323.524     152.896
  H       83.077    -322.987     152.312
  H       82.222    -324.083     151.202
  H       82.885    -324.702     152.748
  P       80.132    -324.717     153.083
  C       80.303    -327.136     154.087
  O       80.952    -325.926     153.740
  C       80.635    -327.531     155.529
  O       82.056    -327.804     155.619
  C       80.301    -326.448     156.557
  O       79.857    -327.085     157.755
  C       81.643    -325.780     156.809
  O       81.683    -325.119     158.070
  C       82.602    -326.972     156.663
  N       83.969    -326.552     156.359
  C       84.744    -326.106     157.433
  O       84.267    -326.066     158.569
  N       86.024    -325.676     157.196
  C       86.472    -325.631     155.982
  N       87.740    -325.170     155.808
  C       85.676    -326.049     154.811
  C       84.450    -326.503     155.071
  O       79.902    -325.190     151.571
  O       78.884    -324.327     153.802
  H       80.818    -324.678     158.219
  H       80.726    -325.266     151.061
  H       86.090    -325.983     153.815
  H       83.798    -326.838     154.272
  H       82.622    -327.566     157.586
  H       81.843    -325.033     156.032
  H       79.539    -325.750     156.203
  H       80.116    -328.469     155.760
  H       88.244    -324.873     156.635
  H       80.609    -327.941     153.412
  H       88.172    -325.040     154.905
  H       79.224    -326.988     153.973
  P       78.309    -327.448     157.930
  C       77.088    -328.460     155.885
  O       77.948    -328.697     156.994
  O       77.361    -326.299     157.850
  O       78.263    -328.100     159.400
  H       77.457    -327.775     159.846
  H       76.933    -329.375     155.352
  H       77.536    -327.739     155.234
  H       76.148    -328.088     156.236

 6  7  8  9  10  11  12  13  14  15  16  26  30  31  32  33  35 0
 6-311+G(2d,p)
 ****
 37  38 0
 6-311+G(2d,p)
 ****
 1  2  3  4  5  17  18  19  20  21  22  23  24  25 0
 3-21G
 ****
 27  28  29  34  36  39  40  41  42  43  44  45  46 0
 3-21G
 ****


