%nproc=1
%NoSave
%Mem=1900MB
#P OB98/GEN NMR

erre ene a

0 1
  C     -357.375    -374.932     190.669
  O     -358.687    -375.345     190.977
  H     -356.669    -375.351     191.388
  H     -357.115    -375.294     189.669
  H     -357.313    -373.837     190.678
  P     -359.274    -374.905     192.408
  C     -358.860    -377.291     193.366
  O     -358.595    -375.899     193.476
  C     -359.376    -377.822     194.700
  O     -358.330    -377.764     195.693
  C     -360.542    -377.044     195.282
  O     -361.784    -377.414     194.707
  C     -360.467    -377.471     196.745
  O     -361.018    -378.792     196.889
  C     -358.954    -377.494     196.976
  N     -357.651    -374.942     201.225
  C     -358.162    -376.177     201.041
  N     -358.488    -376.781     199.867
  C     -358.236    -375.973     198.830
  C     -357.709    -374.690     198.865
  C     -357.407    -374.169     200.147
  N     -356.900    -372.906     200.346
  N     -357.617    -374.156     197.598
  C     -358.040    -375.122     196.807
  N     -358.428    -376.235     197.503
  O     -360.789    -375.404     192.367
  O     -359.152    -373.453     192.735
  H     -360.454    -379.394     196.371
  H     -361.322    -374.920     193.025
  H     -358.343    -376.762     201.937
  H     -358.078    -375.064     195.723
  H     -358.650    -378.279     197.667
  H     -361.024    -376.808     197.416
  H     -360.377    -375.958     195.217
  H     -359.646    -378.880     194.562
  H     -357.939    -377.815     193.099
  H     -356.891    -372.567     201.292
  H     -356.858    -372.271     199.559
  H     -359.609    -377.452     192.583
  P     -363.063    -376.513     195.082
  C     -364.317    -377.848     196.947
  O     -363.377    -376.817     196.623
  O     -364.259    -377.252     194.305
  O     -362.948    -375.073     194.709
  H     -364.977    -376.623     194.099
  H     -364.412    -377.923     198.010
  H     -363.973    -378.781     196.553
  H     -365.269    -377.610     196.520

 6  7  8  9  10  11  12  13  14  15  25  28  32  33  34  35 0
 6-311+G(2d,p)
 ****
 36  39  40 0
 6-311+G(2d,p)
 ****
 1  2  3  4  5  16  17  18  19  20  21  22  23  24 0
 3-21G
 ****
 26  27  29  30  31  37  38  41  42  43  44  45  46  47 0
 3-21G
 ****
 48 0
 3-21G
 ****


