%nproc=1
%NoSave
%Mem=1900MB
#P OB98/GEN NMR

erre ene a

0 1
  C      -78.217    -258.310    -227.838
  O      -77.757    -257.395    -226.866
  P      -77.756    -257.765    -225.307
  C      -79.401    -257.258    -223.407
  O      -79.261    -257.649    -224.769
  C      -80.542    -258.013    -222.725
  O      -80.167    -259.407    -222.560
  C      -80.926    -257.462    -221.344
  O      -82.347    -257.557    -221.227
  C      -80.244    -258.427    -220.391
  O      -80.843    -258.423    -219.103
  C      -80.376    -259.740    -221.173
  N      -79.430    -260.751    -220.721
  C      -79.614    -261.253    -219.431
  O      -80.458    -260.752    -218.682
  N      -78.825    -262.302    -219.020
  C      -77.825    -262.678    -219.754
  N      -77.112    -263.763    -219.340
  C      -77.454    -261.998    -221.013
  C      -78.313    -261.082    -221.453
  O      -76.745    -257.041    -224.483
  O      -77.487    -259.347    -225.284
  H      -76.731    -259.531    -224.693
  H      -81.786    -258.675    -219.191
  H      -76.540    -262.261    -221.525
  H      -78.143    -260.546    -222.380
  H      -81.394    -260.142    -221.082
  H      -79.187    -258.151    -220.280
  H      -80.618    -256.419    -221.206
  H      -81.415    -257.990    -223.395
  H      -77.422    -264.228    -218.496
  H      -79.619    -256.190    -223.383
  H      -76.543    -264.309    -219.983
  H      -78.458    -257.425    -222.873
  P      -83.076    -256.704    -220.076
  C      -83.802    -257.141    -217.620
  O      -83.017    -257.556    -218.719
  O      -84.624    -256.852    -220.498
  O      -82.714    -255.257    -219.985
  H      -85.124    -256.090    -220.142
  H      -83.584    -257.790    -216.768
  H      -84.867    -257.217    -217.860
  H      -83.558    -256.108    -217.345
  H      -78.134    -257.870    -228.810
  H      -79.241    -258.553    -227.643
  H      -77.625    -259.201    -227.798

 3  4  5  6  7  8  9  10  11  12  13  24  27  28  29  30  32 0
 6-311+G(2d,p)
 ****
 34  35 0
 6-311+G(2d,p)
 ****
 1  2  14  15  16  17  18  19  20  21  22  23  25  26 0
 3-21G
 ****
 31  33  36  37  38  39  40  41  42  43  44  45  46 0
 3-21G
 ****


