%nproc=1
%NoSave
%Mem=1900MB
#P OB98/GEN NMR

erre ene a

0 1
  C      -90.800     -21.106     111.298
  O      -89.629     -21.316     110.526
  P      -89.590     -20.663     109.058
  C      -90.434     -21.384     106.701
  O      -90.148     -21.770     108.042
  C      -90.580     -22.623     105.820
  O      -89.308     -23.286     105.679
  C      -91.531     -23.682     106.365
  O      -92.884     -23.298     106.182
  C      -91.095     -24.895     105.548
  O      -91.662     -24.830     104.229
  C      -89.569     -24.701     105.478
  N      -88.698     -29.390     107.349
  C      -89.496     -28.951     106.349
  N      -89.691     -27.685     105.925
  C      -88.951     -26.825     106.644
  C      -88.111     -27.121     107.703
  C      -87.991     -28.475     108.054
  N      -87.179     -28.919     109.078
  N      -87.537     -25.974     108.210
  C      -88.014     -25.002     107.462
  N      -88.860     -25.465     106.490
  O      -88.028     -20.610     108.726
  O      -90.234     -19.315     108.951
  H      -91.386     -25.640     103.754
  H      -87.811     -19.825     108.186
  H      -90.050     -29.721     105.817
  H      -87.774     -23.951     107.578
  H      -89.155     -24.980     104.502
  H      -91.403     -25.846     105.995
  H      -91.335     -23.858     107.431
  H      -90.910     -22.292     104.824
  H      -89.614     -20.770     106.314
  H      -87.266     -29.883     109.359
  H      -86.765     -28.226     109.690
  H      -91.350     -20.786     106.691
  P      -93.890     -23.545     107.409
  C      -94.746     -25.680     108.557
  O      -94.098     -25.139     107.419
  O      -95.273     -23.015     106.805
  O      -93.466     -22.937     108.702
  H      -95.446     -23.377     105.918
  H      -94.870     -26.755     108.411
  H      -95.730     -25.222     108.685
  H      -94.136     -25.511     109.449
  H      -90.694     -21.591     112.246
  H      -91.645     -21.512     110.782
  H      -90.945     -20.057     111.448

 3  4  5  6  7  8  9  10  11  12  22  25  29  30  31  32 0
 6-311+G(2d,p)
 ****
 33  36  37 0
 6-311+G(2d,p)
 ****
 1  2  13  14  15  16  17  18  19  20  21  23  24  26 0
 3-21G
 ****
 27  28  34  35  38  39  40  41  42  43  44  45  46  47  48 0
 3-21G
 ****


