%nproc=1
%NoSave
%Mem=1900MB
#P OB98/GEN NMR

erre ene a

0 1
  C     -203.051     586.656      29.886
  O     -202.499     585.947      30.979
  H     -202.243     586.937      29.207
  H     -203.548     587.564      30.240
  H     -203.761     586.023      29.349
  P     -203.534     585.421      32.087
  C     -203.346     582.867      31.700
  O     -204.101     584.051      31.477
  C     -204.273     581.675      31.919
  O     -204.897     581.747      33.213
  C     -205.415     581.578      30.914
  O     -204.974     580.995      29.700
  C     -206.375     580.667      31.662
  O     -205.947     579.296      31.531
  C     -206.210     581.128      33.123
  N     -210.452     581.740      35.945
  C     -209.794     580.631      35.547
  N     -208.696     580.543      34.761
  C     -208.282     581.761      34.379
  C     -208.855     582.981      34.706
  C     -209.987     582.946      35.540
  N     -210.653     584.079      35.952
  N     -208.157     584.022      34.130
  C     -207.149     583.442      33.508
  N     -207.201     582.073      33.599
  O     -204.545     586.410      32.548
  O     -202.528     584.898      33.219
  H     -205.001     579.260      31.767
  H     -201.753     584.467      32.816
  H     -210.195     579.689      35.904
  H     -206.352     583.966      32.994
  H     -206.223     580.284      33.819
  H     -207.392     580.720      31.269
  H     -205.893     582.549      30.757
  H     -203.660     580.764      31.903
  H     -202.691     582.991      32.571
  H     -211.546     583.956      36.401
  H     -210.378     584.964      35.549
  H     -202.719     582.703      30.821
  P     -205.386     581.633      28.289
  C     -203.298     583.132      28.315
  O     -204.717     583.092      28.236
  O     -206.844     581.610      27.985
  O     -204.538     580.809      27.212
  H     -205.071     580.659      26.407
  H     -202.967     584.148      28.270
  H     -202.880     582.584      27.497
  H     -202.980     582.693      29.238

 6  7  8  9  10  11  12  13  14  15  25  28  32  33  34  35 0
 6-311+G(2d,p)
 ****
 36  39  40 0
 6-311+G(2d,p)
 ****
 1  2  3  4  5  16  17  18  19  20  21  22  23  24 0
 3-21G
 ****
 26  27  29  30  31  37  38  41  42  43  44  45  46  47 0
 3-21G
 ****
 48 0
 3-21G
 ****


