%nproc=1
%NoSave
%Mem=1900MB
#P OB98/GEN NMR

erre ene a

0 1
  C     -144.095    -241.903     -52.864
  O     -143.089    -241.083     -52.309
  P     -142.406    -239.909     -53.160
  C     -143.251    -237.623     -53.993
  O     -143.601    -238.968     -53.689
  C     -143.893    -237.196     -55.322
  O     -143.319    -238.000     -56.398
  C     -145.424    -237.400     -55.339
  O     -146.172    -236.243     -55.717
  C     -145.585    -238.609     -56.247
  O     -146.880    -238.734     -56.810
  C     -144.418    -238.427     -57.224
  N     -144.117    -239.644     -57.972
  C     -144.544    -239.696     -59.298
  O     -145.141    -238.790     -59.873
  N     -144.316    -240.873     -59.953
  C     -143.822    -242.016     -59.399
  O     -143.735    -243.068     -60.020
  C     -143.424    -241.909     -57.986
  C     -143.564    -240.745     -57.352
  O     -141.462    -240.359     -54.223
  O     -141.733    -238.991     -52.034
  H     -147.083    -237.907     -57.282
  H     -142.353    -238.624     -51.379
  H     -144.619    -240.926     -60.913
  H     -143.039    -242.805     -57.515
  H     -143.279    -240.636     -56.310
  H     -144.620    -237.624     -57.939
  H     -145.414    -239.509     -55.643
  H     -145.797    -237.646     -54.339
  H     -143.636    -236.147     -55.496
  H     -142.164    -237.552     -54.084
  H     -143.559    -236.963     -53.175
  P     -147.632    -235.879     -55.181
  C     -148.647    -235.240     -52.872
  O     -147.581    -235.840     -53.584
  O     -148.744    -236.690     -55.758
  O     -147.802    -234.335     -55.572
  H     -148.744    -234.137     -55.721
  H     -148.259    -234.847     -51.925
  H     -149.406    -235.998     -52.653
  H     -149.096    -234.421     -53.437
  H     -144.414    -242.618     -52.135
  H     -143.706    -242.415     -53.720
  H     -144.927    -241.298     -53.158

 3  4  5  6  7  8  9  10  11  12  13  23  28  29  30  31  32 0
 6-311+G(2d,p)
 ****
 33  34 0
 6-311+G(2d,p)
 ****
 1  2  14  15  16  17  18  19  20  21  22  24  25  26  27 0
 3-21G
 ****
 35  36  37  38  39  40  41  42  43  44  45 0
 3-21G
 ****


