%nproc=1
%NoSave
%Mem=1900MB
#P OB98/GEN NMR

erre ene a

0 1
  C      950.214     145.949    -187.547
  O      950.091     144.996    -186.514
  P      950.866     143.592    -186.563
  C      950.242     141.181    -187.239
  O      949.822     142.548    -187.201
  C      949.079     140.257    -187.604
  O      948.215     140.076    -186.442
  C      948.190     140.769    -188.762
  O      947.755     139.599    -189.461
  C      947.037     141.403    -188.017
  O      945.877     141.564    -188.841
  C      946.873     140.457    -186.831
  N      946.136     141.068    -185.728
  C      944.756     141.189    -185.888
  O      944.225     140.859    -186.952
  N      944.017     141.731    -184.870
  C      944.622     142.203    -183.824
  N      943.833     142.719    -182.834
  C      946.081     142.216    -183.670
  C      946.779     141.618    -184.642
  O      951.484     143.162    -185.276
  O      951.924     143.784    -187.752
  H      945.179     141.992    -188.303
  H      952.689     144.328    -187.446
  H      946.544     142.667    -182.803
  H      947.858     141.572    -184.621
  H      946.346     139.533    -187.138
  H      947.329     142.407    -187.672
  H      948.706     141.451    -189.433
  H      949.494     139.272    -187.861
  H      942.835     142.682    -182.980
  H      950.605     140.916    -186.248
  H      944.194     143.040    -181.943
  H      951.068     141.071    -187.949
  P      946.867     139.713    -190.801
  C      944.372     139.631    -191.336
  O      945.344     139.872    -190.334
  O      947.117     138.634    -191.809
  O      947.227     141.172    -191.391
  H      946.937     141.215    -192.320
  H      943.386     139.493    -190.852
  H      944.610     138.742    -191.916
  H      944.309     140.488    -192.016
  H      949.617     146.806    -187.314
  H      949.879     145.521    -188.469
  H      951.239     146.243    -187.641

 3  4  5  6  7  8  9  10  11  12  13  23  27  28  29  30  32 0
 6-311+G(2d,p)
 ****
 34  35 0
 6-311+G(2d,p)
 ****
 1  2  14  15  16  17  18  19  20  21  22  24  25  26 0
 3-21G
 ****
 31  33  36  37  38  39  40  41  42  43  44  45  46 0
 3-21G
 ****


