%nproc=1
%NoSave
%Mem=1900MB
#P OB98/GEN NMR

erre ene a

0 1
  C     -356.854     180.621    -279.801
  O     -356.920     179.237    -280.093
  P     -358.340     178.504    -280.240
  C     -360.564     178.710    -278.942
  O     -359.154     178.880    -278.899
  C     -361.260     179.679    -277.987
  O     -361.064     181.041    -278.417
  C     -362.767     179.488    -277.896
  O     -363.076     178.364    -277.082
  C     -363.196     180.823    -277.310
  O     -363.036     180.854    -275.882
  C     -362.214     181.806    -277.990
  N     -362.827     182.526    -279.098
  C     -363.185     183.856    -278.841
  O     -363.019     184.336    -277.715
  N     -363.788     184.583    -279.840
  C     -364.017     184.030    -280.998
  N     -364.610     184.799    -281.940
  C     -363.671     182.624    -281.294
  C     -363.088     181.937    -280.315
  O     -358.279     177.053    -280.568
  O     -359.088     179.379    -281.355
  H     -363.592     181.599    -275.567
  H     -358.723     179.204    -282.258
  H     -363.892     182.199    -282.268
  H     -362.810     180.898    -280.452
  H     -361.840     182.541    -277.268
  H     -364.250     181.048    -277.520
  H     -363.190     179.364    -278.897
  H     -360.801     179.565    -276.991
  H     -364.853     185.748    -281.680
  H     -360.801     177.684    -278.649
  H     -364.871     184.457    -282.854
  H     -360.915     178.864    -279.974
  P     -364.538     177.722    -277.133
  C     -366.936     178.462    -276.610
  O     -365.563     178.776    -276.507
  O     -364.648     176.328    -276.606
  O     -364.904     177.755    -278.700
  H     -365.307     176.901    -278.952
  H     -367.486     179.056    -275.875
  H     -367.111     177.404    -276.410
  H     -367.296     178.714    -277.610
  H     -355.830     180.925    -279.742
  H     -357.337     180.811    -278.865
  H     -357.346     181.173    -280.575

 3  4  5  6  7  8  9  10  11  12  13  23  27  28  29  30  32 0
 6-311+G(2d,p)
 ****
 34  35 0
 6-311+G(2d,p)
 ****
 1  2  14  15  16  17  18  19  20  21  22  24  25  26 0
 3-21G
 ****
 31  33  36  37  38  39  40  41  42  43  44  45  46 0
 3-21G
 ****


