%nproc=1
%NoSave
%Mem=1900MB
#P OB98/GEN NMR

erre ene a

0 1
  C      234.205     349.471     396.254
  O      235.050     349.164     397.344
  P      236.332     350.076     397.641
  C      237.927     348.066     397.462
  O      237.605     349.369     396.970
  C      238.349     347.161     396.305
  O      237.627     347.503     395.101
  C      239.825     347.261     395.944
  O      240.627     346.566     396.882
  C      239.825     346.671     394.538
  O      239.839     345.235     394.592
  C      238.483     347.170     393.986
  N      240.280     348.796     389.492
  C      240.426     347.623     390.152
  N      239.947     347.278     391.364
  C      239.271     348.306     391.915
  C      239.077     349.569     391.377
  C      239.592     349.799     390.091
  N      239.394     350.963     389.384
  N      238.355     350.362     392.257
  C      238.144     349.587     393.309
  N      238.620     348.321     393.115
  O      236.510     350.476     399.066
  O      236.111     351.363     396.714
  H      240.651     344.970     395.064
  H      236.056     352.162     397.276
  H      240.997     346.859     389.628
  H      237.635     349.897     394.213
  H      237.965     346.390     393.413
  H      240.692     346.983     393.948
  H      240.123     348.318     395.890
  H      238.088     346.122     396.571
  H      237.038     347.653     397.950
  H      239.689     350.966     388.416
  H      238.647     351.585     389.675
  H      238.732     348.144     398.198
  P      241.865     347.305     397.575
  C      243.291     345.311     396.832
  O      243.193     346.721     396.904
  O      241.855     347.319     399.070
  O      241.794     348.797     396.981
  H      242.121     349.430     397.651
  H      243.572     344.912     397.810
  H      244.067     345.046     396.108
  H      242.346     344.866     396.516
  H      233.407     348.760     396.210
  H      234.768     349.432     395.345
  H      233.801     350.453     396.382

 3  4  5  6  7  8  9  10  11  12  22  25  29  30  31  32 0
 6-311+G(2d,p)
 ****
 33  36  37 0
 6-311+G(2d,p)
 ****
 1  2  13  14  15  16  17  18  19  20  21  23  24  26 0
 3-21G
 ****
 27  28  34  35  38  39  40  41  42  43  44  45  46  47  48 0
 3-21G
 ****


