%nproc=1
%NoSave
%Mem=1900MB
#P OB98/GEN NMR

erre ene a

0 1
  C      -94.364     -93.730     -91.307
  O      -95.273     -92.643     -91.254
  P      -96.521     -92.640     -90.241
  C      -98.117     -92.505     -92.272
  O      -97.758     -93.203     -91.091
  C      -99.638     -92.480     -92.432
  O     -100.116     -93.847     -92.535
  C     -100.386     -91.813     -91.270
  O     -101.525     -91.147     -91.824
  C     -100.817     -92.996     -90.423
  O     -101.917     -92.692     -89.579
  C     -101.113     -94.036     -91.510
  N     -101.088     -95.402     -90.999
  C     -102.296     -95.962     -90.581
  O     -103.341     -95.313     -90.621
  N     -102.297     -97.256     -90.122
  C     -101.179     -97.903     -90.009
  N     -101.241     -99.201     -89.606
  C      -99.868     -97.311     -90.336
  C      -99.901     -96.081     -90.841
  O      -96.772     -91.338     -89.562
  O      -96.224     -93.852     -89.245
  H     -102.128     -93.486     -89.052
  H      -95.638     -93.596     -88.490
  H      -98.961     -97.882     -90.197
  H      -98.990     -95.578     -91.133
  H     -102.084     -93.833     -91.974
  H      -99.983     -93.314     -89.789
  H      -99.769     -91.089     -90.731
  H      -99.877     -91.978     -93.378
  H     -102.164     -99.620     -89.559
  H      -97.681     -93.028     -93.128
  H     -100.483     -99.845     -89.804
  H      -97.707     -91.490     -92.242
  P     -101.825     -89.639     -91.360
  C     -104.085     -90.354     -90.303
  O     -102.850     -89.693     -90.129
  O     -102.764     -89.114     -92.554
  O     -100.641     -88.740     -91.215
  H     -102.689     -88.143     -92.613
  H     -104.647     -90.296     -89.367
  H     -103.926     -91.407     -90.549
  H     -104.670     -89.872     -91.091
  H      -93.613     -93.531     -92.043
  H      -94.892     -94.624     -91.568
  H      -93.901     -93.855     -90.350

 3  4  5  6  7  8  9  10  11  12  13  23  27  28  29  30  32 0
 6-311+G(2d,p)
 ****
 34  35 0
 6-311+G(2d,p)
 ****
 1  2  14  15  16  17  18  19  20  21  22  24  25  26 0
 3-21G
 ****
 31  33  36  37  38  39  40  41  42  43  44  45  46 0
 3-21G
 ****


