%nproc=1
%NoSave
%Mem=1900MB
#P OB98/GEN NMR

erre ene a

0 1
  C     -235.421    -643.754    -424.809
  O     -234.148    -644.311    -425.059
  H     -235.752    -644.072    -423.818
  H     -236.142    -644.112    -425.548
  H     -235.379    -642.662    -424.831
  P     -233.370    -643.894    -426.397
  C     -231.543    -642.545    -425.181
  O     -232.634    -642.502    -426.091
  C     -230.311    -641.909    -425.816
  O     -229.812    -642.742    -426.887
  C     -230.574    -640.542    -426.443
  O     -230.685    -639.547    -425.446
  C     -229.364    -640.417    -427.355
  O     -228.198    -640.021    -426.615
  C     -229.211    -641.868    -427.869
  N     -229.811    -642.067    -429.192
  C     -229.371    -641.215    -430.199
  O     -228.535    -640.335    -430.019
  N     -229.969    -641.383    -431.419
  C     -230.997    -642.235    -431.697
  O     -231.645    -642.197    -432.739
  C     -231.367    -643.160    -430.617
  C     -230.778    -643.026    -429.426
  O     -234.176    -643.920    -427.651
  O     -232.152    -644.934    -426.461
  H     -232.364    -645.639    -427.102
  H     -228.012    -640.744    -425.984
  H     -229.690    -640.739    -432.147
  H     -232.136    -643.896    -430.817
  H     -231.056    -643.678    -428.605
  H     -228.151    -642.142    -427.932
  H     -229.512    -639.674    -428.141
  H     -231.481    -640.581    -427.060
  H     -229.527    -641.840    -425.053
  H     -231.329    -643.592    -424.941
  H     -231.821    -642.019    -424.261
  P     -231.207    -638.076    -425.803
  C     -233.617    -637.827    -424.967
  O     -232.786    -638.159    -426.070
  O     -230.434    -637.371    -426.866
  O     -231.120    -637.284    -424.414
  H     -230.607    -636.461    -424.547
  H     -234.644    -637.915    -425.255
  H     -233.418    -636.821    -424.660
  H     -233.415    -638.494    -424.155

 6  7  8  9  10  11  12  13  14  15  16  27  31  32  33  34  35 0
 6-311+G(2d,p)
 ****
 36  37 0
 6-311+G(2d,p)
 ****
 1  2  3  4  5  17  18  19  20  21  22  23  24  25 0
 3-21G
 ****
 26  28  29  30  38  39  40  41  42  43  44  45 0
 3-21G
 ****


