%nproc=1
%NoSave
%Mem=1900MB
#P OB98/GEN NMR

erre ene a

0 1
  C      738.339    -236.489    -162.317
  O      737.702    -236.646    -161.045
  P      737.622    -235.332    -160.128
  C      735.205    -235.590    -159.218
  O      736.086    -234.869    -160.061
  C      734.263    -236.468    -160.047
  O      734.963    -237.504    -160.762
  C      733.209    -237.176    -159.209
  O      732.153    -236.284    -158.897
  C      732.781    -238.309    -160.138
  O      731.786    -237.862    -161.083
  C      734.093    -238.658    -160.865
  N      734.434    -243.709    -161.111
  C      733.504    -242.857    -161.673
  N      732.540    -243.431    -162.426
  N      733.517    -241.560    -161.509
  C      734.533    -241.127    -160.732
  C      735.530    -241.869    -160.144
  C      735.504    -243.305    -160.327
  O      736.316    -244.099    -159.868
  N      736.427    -241.071    -159.478
  C      735.898    -239.864    -159.561
  N      734.784    -239.833    -160.364
  O      738.330    -234.211    -161.024
  O      738.298    -235.489    -158.806
  H      732.184    -237.190    -161.667
  H      739.191    -233.967    -160.629
  H      734.371    -244.702    -161.261
  H      736.295    -238.983    -159.081
  H      733.923    -238.840    -161.931
  H      732.334    -239.139    -159.587
  H      732.470    -244.420    -162.598
  H      733.664    -237.592    -158.300
  H      731.854    -242.820    -162.856
  H      733.773    -235.819    -160.785
  H      734.626    -234.900    -158.607
  H      735.799    -236.201    -158.527
  P      732.440    -235.133    -157.819
  C      731.834    -232.911    -159.012
  O      732.855    -233.813    -158.620
  O      733.809    -235.610    -157.135
  O      731.366    -234.959    -156.798
  H      733.750    -235.504    -156.166
  H      732.252    -231.905    -159.049
  H      730.994    -232.921    -158.312
  H      731.481    -233.187    -160.009
  H      738.334    -237.424    -162.836
  H      739.349    -236.167    -162.173
  H      737.811    -235.758    -162.893

 3  4  5  6  7  8  9  10  11  12  23  26  30  31 0
 6-311+G(2d,p)
 ****
 33  35  36  37  38 0
 6-311+G(2d,p)
 ****
 1  2  13  14  15  16  17  18  19  20  21  22  24  25 0
 3-21G
 ****
 27  28  29  32  34  39  40  41  42  43  44  45  46  47  48  49 0
 3-21G
 ****


