%nproc=1
%NoSave
%Mem=1900MB
#P OB98/GEN NMR

erre ene a

0 1
  C     -193.928     306.058     260.828
  O     -192.640     306.485     261.223
  H     -194.644     306.346     261.603
  H     -193.943     304.971     260.719
  H     -194.217     306.535     259.886
  P     -191.465     306.328     260.135
  C     -190.046     304.278     259.311
  O     -191.064     304.775     260.164
  C     -190.400     302.876     258.817
  O     -190.569     302.007     259.963
  C     -191.687     302.816     257.993
  O     -191.515     301.858     256.947
  C     -192.725     302.323     258.986
  O     -193.828     301.695     258.333
  C     -191.879     301.406     259.882
  N     -192.470     301.230     261.210
  C     -192.923     299.949     261.533
  O     -192.834     299.034     260.708
  N     -193.502     299.737     262.758
  C     -193.680     300.737     263.568
  N     -194.278     300.467     264.756
  C     -193.267     302.117     263.246
  C     -192.665     302.289     262.070
  O     -190.242     307.052     260.873
  O     -191.795     306.883     258.791
  H     -194.532     301.546     259.004
  H     -190.183     306.847     261.822
  H     -193.451     302.919     263.944
  H     -192.323     303.270     261.758
  H     -191.766     300.417     259.422
  H     -193.117     303.167     259.570
  H     -191.972     303.779     257.565
  H     -189.548     302.482     258.248
  H     -194.565     299.512     264.930
  H     -189.089     304.246     259.843
  H     -194.513     301.175     265.438
  H     -189.944     304.965     258.466
  P     -191.008     302.348     255.509
  C     -191.869     302.358     253.078
  O     -192.193     302.147     254.443
  O     -189.677     301.831     255.077
  O     -190.965     303.947     255.672
  H     -190.178     304.278     255.195
  H     -192.738     302.194     252.476
  H     -191.098     301.677     252.785
  H     -191.527     303.363     252.944

 6  7  8  9  10  11  12  13  14  15  16  26  30  31  32  33  35 0
 6-311+G(2d,p)
 ****
 37  38 0
 6-311+G(2d,p)
 ****
 1  2  3  4  5  17  18  19  20  21  22  23  24  25 0
 3-21G
 ****
 27  28  29  34  36  39  40  41  42  43  44  45  46 0
 3-21G
 ****


