%nproc=1
%NoSave
%Mem=1900MB
#P OB98/GEN NMR

erre ene a

0 1
  C     -137.778     774.589     130.963
  O     -138.314     774.013     129.790
  H     -137.885     775.673     130.904
  H     -136.715     774.345     131.052
  H     -138.313     774.233     131.852
  P     -138.404     772.416     129.678
  C     -136.637     770.954     128.501
  O     -136.898     771.873     129.558
  C     -135.132     770.693     128.401
  O     -134.447     771.881     127.939
  C     -134.475     770.329     129.737
  O     -134.775     768.992     130.088
  C     -133.016     770.605     129.406
  O     -132.440     769.522     128.653
  C     -133.127     771.876     128.533
  N     -132.883     773.110     129.289
  C     -131.602     773.246     129.829
  O     -130.723     772.399     129.711
  N     -131.397     774.388     130.567
  C     -132.344     775.324     130.877
  O     -132.172     776.204     131.715
  C     -133.641     775.162     130.213
  C     -133.853     774.077     129.463
  O     -139.352     771.890     128.649
  O     -138.826     771.959     131.157
  H     -139.781     771.763     131.172
  H     -131.656     769.885     128.200
  H     -130.494     774.474     131.013
  H     -134.400     775.921     130.374
  H     -134.819     773.922     128.992
  H     -132.409     771.833     127.702
  H     -132.406     770.732     130.301
  H     -134.802     771.026     130.516
  H     -134.967     769.900     127.661
  H     -136.993     771.379     127.565
  H     -137.180     770.023     128.705
  P     -135.127     768.605     131.603
  C     -133.727     767.793     133.587
  O     -133.781     768.658     132.473
  O     -135.916     767.340     131.763
  O     -135.964     769.866     132.152
  H     -136.818     769.549     132.517
  H     -132.789     767.915     134.088
  H     -133.827     766.780     133.257
  H     -134.524     768.029     134.261

 6  7  8  9  10  11  12  13  14  15  16  27  31  32  33  34  35 0
 6-311+G(2d,p)
 ****
 36  37 0
 6-311+G(2d,p)
 ****
 1  2  3  4  5  17  18  19  20  21  22  23  24  25 0
 3-21G
 ****
 26  28  29  30  38  39  40  41  42  43  44  45 0
 3-21G
 ****


