%nproc=1
%NoSave
%Mem=1900MB
#P OB98/GEN NMR

erre ene a

0 1
  C     -853.668     224.080     635.879
  O     -853.775     222.646     635.936
  P     -852.955     221.700     634.938
  C     -855.003     221.228     633.448
  O     -853.637     221.688     633.474
  C     -855.547     221.127     632.002
  O     -854.845     220.117     631.223
  C     -857.057     220.771     631.933
  O     -857.543     221.424     630.751
  C     -857.022     219.276     631.748
  O     -858.228     218.742     631.208
  C     -855.817     219.145     630.804
  N     -855.522     214.661     628.323
  C     -856.019     215.858     627.963
  N     -856.038     217.000     628.663
  C     -855.407     216.863     629.850
  C     -854.832     215.690     630.353
  C     -854.939     214.557     629.533
  N     -854.475     213.310     629.937
  N     -854.332     215.915     631.617
  C     -854.593     217.203     631.854
  N     -855.237     217.794     630.825
  O     -852.668     220.340     635.484
  O     -851.571     222.493     634.691
  H     -858.135     217.780     631.123
  H     -850.832     221.861     634.767
  H     -856.473     215.884     626.973
  H     -854.344     217.690     632.780
  H     -856.087     219.373     629.759
  H     -856.845     218.777     632.718
  H     -857.625     221.098     632.804
  H     -855.343     222.080     631.518
  H     -855.613     221.904     634.021
  H     -854.651     212.521     629.311
  H     -854.131     213.190     630.872
  H     -855.036     220.230     633.919
  P     -858.729     222.507     630.804
  C     -860.731     220.921     630.704
  O     -859.975     221.789     631.512
  O     -859.041     223.165     629.505
  O     -858.242     223.581     631.911
  H     -858.750     224.411     631.778
  H     -861.375     221.506     630.026
  H     -861.351     220.293     631.333
  H     -860.069     220.274     630.095
  H     -854.295     224.515     636.629
  H     -853.977     224.423     634.913
  H     -852.652     224.369     636.052

 3  4  5  6  7  8  9  10  11  12  22  25  29  30  31  32 0
 6-311+G(2d,p)
 ****
 33  36  37 0
 6-311+G(2d,p)
 ****
 1  2  13  14  15  16  17  18  19  20  21  23  24  26 0
 3-21G
 ****
 27  28  34  35  38  39  40  41  42  43  44  45  46  47  48 0
 3-21G
 ****


