%nproc=1
%NoSave
%Mem=1900MB
#P OB98/GEN NMR

erre ene a

0 1
  C        2.745     282.319     390.596
  O        3.608     281.522     391.414
  P        4.365     280.270     390.748
  C        2.743     278.321     391.225
  O        3.269     279.213     390.248
  C        1.679     277.382     390.600
  O        2.271     276.585     389.530
  C        1.091     276.411     391.626
  O       -0.293     276.131     391.309
  C        1.883     275.143     391.380
  O        1.196     273.986     391.876
  C        2.048     275.197     389.857
  N        3.401     270.555     388.147
  C        2.199     271.084     388.474
  N        1.912     272.337     388.888
  C        3.032     273.068     388.962
  C        4.330     272.676     388.677
  C        4.494     271.348     388.246
  N        5.736     270.807     387.961
  N        5.210     273.721     388.870
  C        4.481     274.699     389.324
  N        3.145     274.381     389.385
  O        5.478     279.683     391.549
  O        4.913     280.881     389.369
  H        0.962     274.175     392.819
  H        5.829     280.552     389.213
  H        1.359     270.404     388.370
  H        4.854     275.671     389.656
  H        1.138     274.877     389.339
  H        2.855     275.213     391.903
  H        1.153     276.750     392.673
  H        0.903     278.000     390.141
  H        2.304     278.889     392.044
  H        5.771     269.814     387.776
  H        6.566     271.345     388.152
  H        3.562     277.749     391.665
  P       -1.371     276.800     392.298
  C       -1.511     274.760     393.941
  O       -1.164     276.117     393.727
  O       -2.769     276.763     391.758
  O       -0.801     278.290     392.465
  H        0.148     278.326     392.710
  H       -1.151     274.463     394.939
  H       -1.028     274.130     393.191
  H       -2.593     274.647     393.890
  H        2.322     283.106     391.185
  H        1.961     281.707     390.202
  H        3.307     282.741     389.789

 3  4  5  6  7  8  9  10  11  12  22  25  29  30  31  32 0
 6-311+G(2d,p)
 ****
 33  36  37 0
 6-311+G(2d,p)
 ****
 1  2  13  14  15  16  17  18  19  20  21  23  24  26 0
 3-21G
 ****
 27  28  34  35  38  39  40  41  42  43  44  45  46  47  48 0
 3-21G
 ****


