%nproc=1
%NoSave
%Mem=1900MB
#P OB98/GEN NMR

erre ene a

0 1
  C      906.965    -438.394    -351.000
  O      907.864    -437.651    -351.809
  H      905.960    -438.276    -351.415
  H      906.983    -437.996    -349.984
  H      907.224    -439.455    -350.993
  P      909.435    -437.927    -351.664
  C      910.207    -437.829    -354.131
  O      910.162    -437.156    -352.875
  C      908.831    -437.811    -354.814
  O      908.326    -436.457    -354.853
  C      908.964    -438.282    -356.270
  O      907.764    -438.888    -356.745
  C      909.184    -436.976    -357.026
  O      908.851    -437.076    -358.404
  C      908.306    -436.016    -356.223
  N      908.884    -431.905    -359.180
  C      908.528    -433.189    -359.523
  N      908.313    -433.405    -360.851
  N      908.407    -434.160    -358.665
  C      908.713    -433.820    -357.398
  C      909.108    -432.581    -356.938
  C      909.202    -431.503    -357.893
  O      909.533    -430.352    -357.634
  N      909.358    -432.614    -355.580
  C      909.122    -433.865    -355.234
  N      908.718    -434.629    -356.303
  O      909.594    -439.463    -352.081
  O      910.022    -437.660    -350.308
  H      907.881    -437.035    -358.481
  H      910.392    -439.845    -351.675
  H      908.957    -431.185    -359.884
  H      909.230    -434.268    -354.233
  H      907.270    -436.066    -356.566
  H      910.255    -436.727    -356.967
  H      908.570    -432.746    -361.561
  H      909.784    -438.974    -356.401
  H      908.340    -434.393    -361.157
  H      908.112    -438.408    -354.240
  H      910.520    -438.870    -353.940
  H      910.974    -437.387    -354.765
  P      907.709    -440.495    -356.745
  C      905.124    -440.987    -356.659
  O      906.322    -440.931    -357.418
  O      907.525    -440.877    -355.204
  O      908.909    -441.136    -357.347
  H      908.357    -441.205    -354.841
  H      904.317    -441.298    -357.289
  H      904.911    -440.018    -356.257
  H      905.241    -441.687    -355.858

 6  7  8  9  10  11  12  13  14  15  26  29  33  34 0
 6-311+G(2d,p)
 ****
 36  38  39  40  41 0
 6-311+G(2d,p)
 ****
 1  2  3  4  5  16  17  18  19  20  21  22  23  24  25 0
 3-21G
 ****
 27  28  30  31  32  35  37  42  43  44  45  46  47 0
 3-21G
 ****
 48  49 0
 3-21G
 ****


