%nproc=1
%NoSave
%Mem=1900MB
#P OB98/GEN NMR

erre ene a

0 1
  C      149.212     123.620      -9.617
  O      148.695     124.853     -10.080
  P      149.122     125.437     -11.506
  C      148.761     124.652     -13.919
  O      148.992     124.244     -12.576
  C      149.502     123.752     -14.908
  O      150.934     123.967     -14.765
  C      149.246     122.248     -14.726
  O      149.286     121.659     -16.028
  C      150.458     121.797     -13.924
  O      150.697     120.399     -14.022
  C      151.538     122.673     -14.549
  N      156.336     121.107     -13.732
  C      155.412     120.734     -14.643
  N      154.145     121.179     -14.778
  C      153.867     122.111     -13.850
  C      154.694     122.571     -12.842
  C      155.998     122.041     -12.809
  N      156.964     122.436     -11.912
  N      154.028     123.488     -12.049
  C      152.822     123.574     -12.575
  N      152.699     122.810     -13.702
  O      150.430     126.155     -11.534
  O      147.920     126.412     -11.904
  H      151.546     120.200     -13.583
  H      148.202     127.344     -11.806
  H      155.730     119.982     -15.359
  H      152.008     124.169     -12.182
  H      151.870     122.287     -15.521
  H      150.310     122.043     -12.865
  H      148.301     122.016     -14.221
  H      149.231     124.064     -15.924
  H      149.122     125.679     -14.028
  H      157.899     122.091     -12.061
  H      156.829     123.305     -11.394
  H      147.687     124.641     -14.130
  P      148.410     120.354     -16.342
  C      145.913     119.875     -16.626
  O      146.881     120.762     -16.098
  O      148.856     119.102     -15.661
  O      148.500     120.221     -17.939
  H      148.238     119.317     -18.206
  H      145.785     120.069     -17.694
  H      144.959     120.045     -16.117
  H      146.208     118.831     -16.480
  H      148.809     123.405      -8.650
  H      150.278     123.682      -9.553
  H      148.940     122.841     -10.298

 3  4  5  6  7  8  9  10  11  12  22  25  29  30  31  32 0
 6-311+G(2d,p)
 ****
 33  36  37 0
 6-311+G(2d,p)
 ****
 1  2  13  14  15  16  17  18  19  20  21  23  24  26 0
 3-21G
 ****
 27  28  34  35  38  39  40  41  42  43  44  45  46  47  48 0
 3-21G
 ****


