%nproc=1
%NoSave
%Mem=1900MB
#P OB98/GEN NMR

erre ene a

0 1
  C      725.890     271.693      20.960
  O      727.086     271.266      20.331
  P      727.687     272.050      19.070
  C      727.916     269.913      17.650
  O      728.600     270.998      18.268
  C      728.911     268.813      17.253
  O      729.862     269.374      16.290
  C      729.715     268.269      18.446
  O      729.682     266.844      18.586
  C      731.095     268.873      18.235
  O      732.136     268.182      18.903
  C      731.168     268.928      16.707
  N      732.241     269.815      16.233
  C      733.533     269.302      16.239
  O      733.832     268.172      16.600
  N      734.514     270.179      15.857
  C      734.363     271.508      15.598
  O      735.299     272.248      15.361
  C      732.967     272.000      15.647
  C      731.977     271.138      15.927
  O      728.365     273.343      19.376
  O      726.419     272.201      18.096
  H      732.981     268.607      18.652
  H      726.015     271.357      17.823
  H      735.461     269.824      15.860
  H      732.806     273.046      15.459
  H      730.953     271.472      15.973
  H      731.331     267.938      16.276
  H      731.075     269.895      18.639
  H      729.300     268.637      19.403
  H      728.351     268.017      16.754
  H      727.407     270.280      16.752
  H      727.150     269.526      18.330
  P      728.998     266.048      19.791
  C      730.795     264.229      20.250
  O      729.513     264.539      19.749
  O      727.514     266.213      19.896
  O      729.720     266.645      21.097
  H      729.107     266.603      21.851
  H      731.179     263.350      19.721
  H      730.715     263.984      21.312
  H      731.486     265.060      20.121
  H      725.663     271.039      21.776
  H      725.088     271.673      20.252
  H      726.016     272.690      21.327

 3  4  5  6  7  8  9  10  11  12  13  23  28  29  30  31  32 0
 6-311+G(2d,p)
 ****
 33  34 0
 6-311+G(2d,p)
 ****
 1  2  14  15  16  17  18  19  20  21  22  24  25  26  27 0
 3-21G
 ****
 35  36  37  38  39  40  41  42  43  44  45 0
 3-21G
 ****


