%nproc=1
%NoSave
%Mem=1900MB
#P OB98/GEN NMR

erre ene a

0 1
  C        1.335    -337.727    -156.885
  O        0.443    -338.833    -156.721
  P        0.843    -340.295    -157.257
  C       -0.470    -341.662    -155.535
  O       -0.343    -341.322    -156.910
  C       -1.509    -342.755    -155.266
  O       -2.856    -342.228    -155.368
  C       -1.425    -343.967    -156.198
  O       -1.824    -345.095    -155.412
  C       -2.476    -343.642    -157.248
  O       -2.896    -344.782    -157.982
  C       -3.556    -342.983    -156.379
  N       -4.459    -342.138    -157.160
  C       -5.508    -342.778    -157.822
  O       -5.608    -344.007    -157.785
  N       -6.391    -342.020    -158.561
  C       -6.177    -340.746    -158.698
  N       -7.067    -340.048    -159.454
  C       -5.033    -340.040    -158.085
  C       -4.229    -340.792    -157.328
  O        2.202    -340.758    -156.843
  O        0.756    -340.157    -158.854
  H       -3.307    -345.419    -157.359
  H        1.399    -340.771    -159.263
  H       -4.879    -338.982    -158.247
  H       -3.365    -340.369    -156.829
  H       -4.162    -343.742    -155.864
  H       -2.073    -342.915    -157.963
  H       -0.431    -344.118    -156.628
  H       -1.382    -343.077    -154.224
  H       -7.823    -340.575    -159.882
  H       -0.746    -340.758    -154.976
  H       -6.935    -339.088    -159.717
  H        0.511    -341.982    -155.156
  P       -0.764    -345.965    -154.585
  C       -2.630    -346.764    -153.025
  O       -1.580    -347.160    -153.894
  O        0.104    -345.186    -153.655
  O        0.114    -346.717    -155.700
  H        0.938    -347.041    -155.295
  H       -3.242    -347.639    -152.784
  H       -3.264    -346.006    -153.499
  H       -2.211    -346.363    -152.100
  H        0.893    -336.847    -156.466
  H        1.522    -337.571    -157.927
  H        2.257    -337.935    -156.384

 3  4  5  6  7  8  9  10  11  12  13  23  27  28  29  30  32 0
 6-311+G(2d,p)
 ****
 34  35 0
 6-311+G(2d,p)
 ****
 1  2  14  15  16  17  18  19  20  21  22  24  25  26 0
 3-21G
 ****
 31  33  36  37  38  39  40  41  42  43  44  45  46 0
 3-21G
 ****


