%nproc=1
%NoSave
%Mem=1900MB
#P OB98/GEN NMR

erre ene a

0 1
  C     -182.980    -325.479    -202.135
  O     -183.358    -325.933    -200.827
  P     -182.178    -326.544    -199.917
  C     -182.436    -329.089    -200.334
  O     -181.702    -327.914    -200.615
  C     -181.591    -330.355    -200.583
  O     -180.487    -330.423    -199.627
  C     -182.385    -331.664    -200.477
  O     -181.831    -332.580    -201.446
  C     -182.043    -332.132    -199.062
  O     -182.367    -333.482    -198.817
  C     -180.579    -331.737    -199.003
  N     -179.010    -334.638    -195.106
  C     -179.528    -334.959    -196.313
  N     -179.929    -334.126    -197.301
  C     -179.739    -332.833    -196.934
  C     -179.226    -332.367    -195.739
  C     -178.852    -333.324    -194.787
  N     -178.344    -333.018    -193.541
  N     -179.214    -330.966    -195.723
  C     -179.783    -330.637    -196.874
  N     -180.040    -331.711    -197.665
  O     -182.928    -327.020    -198.598
  O     -181.085    -325.568    -199.638
  H     -182.066    -333.741    -197.928
  H     -182.823    -326.369    -197.891
  H     -179.633    -336.016    -196.518
  H     -180.020    -329.619    -197.177
  H     -179.946    -332.427    -199.599
  H     -182.628    -331.531    -198.336
  H     -183.462    -331.547    -200.655
  H     -181.150    -330.274    -201.586
  H     -183.332    -329.130    -200.964
  H     -178.119    -333.784    -192.923
  H     -178.235    -332.063    -193.262
  H     -182.789    -329.059    -199.294
  P     -182.333    -332.477    -202.965
  C     -183.945    -334.398    -202.436
  O     -183.821    -333.082    -202.950
  O     -181.512    -333.688    -203.619
  O     -182.134    -331.162    -203.639
  H     -181.605    -334.508    -203.099
  H     -185.021    -334.646    -202.407
  H     -183.548    -334.456    -201.422
  H     -183.438    -335.108    -203.099
  H     -183.841    -325.097    -202.642
  H     -182.571    -326.296    -202.692
  H     -182.246    -324.706    -202.046

 3  4  5  6  7  8  9  10  11  12  22  25  29  30  31  32 0
 6-311+G(2d,p)
 ****
 33  36  37 0
 6-311+G(2d,p)
 ****
 1  2  13  14  15  16  17  18  19  20  21  23  24  26 0
 3-21G
 ****
 27  28  34  35  38  39  40  41  42  43  44  45  46  47  48 0
 3-21G
 ****


