%nproc=1
%NoSave
%Mem=1900MB
#P OB98/GEN NMR

erre ene a

0 1
  C       87.886      -0.684     -11.907
  O       87.235      -0.326     -13.110
  H       87.478      -0.075     -11.095
  H       88.961      -0.504     -11.975
  H       87.699      -1.738     -11.680
  P       87.843      -0.876     -14.491
  C       89.621       0.993     -14.432
  O       89.383      -0.411     -14.492
  C       91.082       1.293     -14.102
  O       91.459       0.682     -12.850
  C       92.075       0.747     -15.116
  O       92.013       1.353     -16.386
  C       93.377       0.790     -14.333
  O       93.981       2.083     -14.350
  C       92.886       0.454     -12.903
  N       93.229      -0.907     -12.504
  C       94.337      -1.038     -11.677
  O       95.025      -0.086     -11.303
  N       94.660      -2.316     -11.311
  C       94.025      -3.450     -11.721
  O       94.377      -4.572     -11.373
  C       92.883      -3.252     -12.628
  C       92.540      -2.007     -12.972
  O       87.092      -0.488     -15.730
  O       87.942      -2.455     -14.265
  H       94.726       2.057     -13.719
  H       88.070      -2.932     -15.122
  H       95.453      -2.431     -10.698
  H       92.362      -4.130     -12.984
  H       91.698      -1.835     -13.639
  H       93.336       1.143     -12.175
  H       94.114       0.083     -14.720
  H       91.847      -0.314     -15.280
  H       91.187       2.378     -13.986
  H       88.980       1.406     -13.645
  H       89.347       1.451     -15.388
  P       92.550       0.667     -17.722
  C       94.733       2.103     -17.815
  O       94.146       0.808     -17.762
  O       91.787       0.953     -18.975
  O       92.361      -0.901     -17.382
  H       92.134      -1.351     -18.221
  H       95.799       2.011     -17.836
  H       94.440       2.663     -16.951
  H       94.401       2.609     -18.697

 6  7  8  9  10  11  12  13  14  15  16  26  31  32  33  34  35 0
 6-311+G(2d,p)
 ****
 36  37 0
 6-311+G(2d,p)
 ****
 1  2  3  4  5  17  18  19  20  21  22  23  24  25 0
 3-21G
 ****
 27  28  29  30  38  39  40  41  42  43  44  45 0
 3-21G
 ****


