%nproc=1
%NoSave
%Mem=1900MB
#P OB98/GEN NMR

erre ene a

0 1
  C     -448.203     296.589     631.674
  O     -448.443     295.402     630.941
  H     -447.257     297.025     631.333
  H     -448.126     296.374     632.747
  H     -449.006     297.307     631.495
  P     -449.685     294.473     631.352
  C     -448.384     292.525     632.443
  O     -449.225     293.662     632.667
  C     -448.594     291.474     633.548
  O     -448.020     290.221     633.105
  C     -447.928     291.859     634.881
  O     -448.776     291.422     635.948
  C     -446.648     291.055     634.868
  O     -446.142     290.827     636.164
  C     -447.070     289.789     634.096
  N     -445.911     289.127     633.490
  C     -445.740     287.771     633.805
  O     -446.554     287.192     634.533
  N     -444.641     287.105     633.341
  C     -443.734     287.760     632.667
  N     -442.639     287.061     632.267
  C     -443.858     289.201     632.342
  C     -444.959     289.819     632.782
  O     -450.268     293.632     630.269
  O     -450.757     295.515     631.934
  H     -445.352     290.252     636.105
  H     -451.346     295.817     631.218
  H     -443.072     289.704     631.775
  H     -445.117     290.872     632.590
  H     -447.576     289.085     634.767
  H     -445.874     291.600     634.295
  H     -447.736     292.935     634.978
  H     -449.670     291.316     633.678
  H     -442.589     286.094     632.527
  H     -447.348     292.873     632.460
  H     -441.853     287.473     631.756
  H     -448.610     292.087     631.470
  P     -449.216     292.440     637.116
  C     -446.914     292.623     638.226
  O     -447.951     293.335     637.547
  O     -449.945     291.806     638.255
  O     -450.172     293.491     636.363
  H     -450.836     293.826     636.985
  H     -446.120     293.297     638.471
  H     -446.540     291.847     637.592
  H     -447.306     292.192     639.124

 6  7  8  9  10  11  12  13  14  15  16  26  30  31  32  33  35 0
 6-311+G(2d,p)
 ****
 37  38 0
 6-311+G(2d,p)
 ****
 1  2  3  4  5  17  18  19  20  21  22  23  24  25 0
 3-21G
 ****
 27  28  29  34  36  39  40  41  42  43  44  45  46 0
 3-21G
 ****


