%nproc=1
%NoSave
%Mem=1900MB
#P OB98/GEN NMR

erre ene a

0 1
  C     -178.845      33.368     -87.572
  O     -179.257      32.183     -86.918
  H     -177.906      33.707     -87.126
  H     -179.598      34.148     -87.437
  H     -178.681      33.190     -88.638
  P     -180.456      31.326     -87.547
  C     -179.090      29.136     -87.526
  O     -180.248      29.813     -87.055
  C     -179.066      27.689     -87.024
  O     -178.985      27.706     -85.565
  C     -180.319      26.871     -87.404
  O     -179.903      25.509     -87.575
  C     -181.162      27.034     -86.152
  O     -182.224      26.117     -86.117
  C     -180.074      26.892     -85.084
  N     -180.504      27.310     -83.756
  C     -181.344      26.451     -83.055
  O     -181.723      25.361     -83.484
  N     -181.758      26.893     -81.827
  C     -181.424      28.084     -81.249
  O     -181.806      28.422     -80.135
  C     -180.556      28.963     -82.051
  C     -180.142      28.543     -83.248
  O     -180.669      31.488     -89.015
  O     -181.738      31.800     -86.710
  H     -182.225      32.478     -87.216
  H     -182.731      26.209     -85.281
  H     -182.368      26.283     -81.304
  H     -180.292      29.924     -81.630
  H     -179.504      29.164     -83.868
  H     -179.710      25.861     -85.035
  H     -181.607      28.033     -86.122
  H     -180.798      27.228     -88.320
  H     -178.152      27.204     -87.387
  H     -178.208      29.674     -87.158
  H     -179.086      29.152     -88.622
  P     -180.211      24.654     -88.899
  C     -177.768      23.864     -89.133
  O     -179.131      23.472     -89.033
  O     -180.335      25.487     -90.135
  O     -181.583      23.884     -88.603
  H     -182.105      23.827     -89.426
  H     -177.152      22.993     -89.217
  H     -177.490      24.415     -88.259
  H     -177.636      24.479     -89.999

 6  7  8  9  10  11  12  13  14  15  16  27  31  32  33  34  35 0
 6-311+G(2d,p)
 ****
 36  37 0
 6-311+G(2d,p)
 ****
 1  2  3  4  5  17  18  19  20  21  22  23  24  25 0
 3-21G
 ****
 26  28  29  30  38  39  40  41  42  43  44  45 0
 3-21G
 ****


