%nproc=1
%NoSave
%Mem=1900MB
#P OB98/GEN NMR

erre ene a

0 1
  C       -2.353     346.138    -294.230
  O       -3.305     345.192    -293.734
  P       -4.563     344.889    -294.681
  C       -4.204     342.322    -294.807
  O       -5.050     343.386    -294.396
  C       -4.825     340.969    -294.447
  O       -4.709     340.668    -293.044
  C       -6.315     340.883    -294.771
  O       -6.493     340.632    -296.157
  C       -6.752     339.720    -293.892
  O       -6.498     338.452    -294.529
  C       -5.865     339.882    -292.648
  N       -8.695     339.094    -288.515
  C       -8.348     338.223    -289.531
  N       -8.800     336.956    -289.416
  N       -7.622     338.565    -290.565
  C       -7.240     339.864    -290.548
  C       -7.496     340.813    -289.585
  C       -8.303     340.423    -288.446
  O       -8.615     341.152    -287.512
  N       -6.887     342.007    -289.883
  C       -6.373     341.811    -291.081
  N       -6.504     340.511    -291.503
  O       -3.919     344.815    -296.143
  O       -5.632     345.933    -294.604
  H       -6.742     337.734    -293.917
  H       -4.196     345.592    -296.667
  H       -9.262     338.778    -287.746
  H       -5.877     342.563    -291.677
  H       -5.487     338.914    -292.295
  H       -7.827     339.751    -293.687
  H       -9.359     336.623    -288.648
  H       -6.822     341.802    -294.464
  H       -8.550     336.300    -290.147
  H       -4.279     340.199    -295.007
  H       -3.227     342.415    -294.332
  H       -4.041     342.401    -295.887
  P       -7.740     341.325    -296.887
  C       -6.725     343.499    -297.875
  O       -7.167     342.179    -298.113
  O       -8.208     342.438    -295.829
  O       -8.860     340.396    -297.218
  H       -9.182     342.428    -295.753
  H       -5.930     343.741    -298.589
  H       -6.337     343.621    -296.860
  H       -7.559     344.189    -298.028
  H       -1.564     346.258    -293.517
  H       -2.836     347.080    -294.389
  H       -1.947     345.784    -295.155

 3  4  5  6  7  8  9  10  11  12  23  26  30  31 0
 6-311+G(2d,p)
 ****
 33  35  36  37  38 0
 6-311+G(2d,p)
 ****
 1  2  13  14  15  16  17  18  19  20  21  22  24  25 0
 3-21G
 ****
 27  28  29  32  34  39  40  41  42  43  44  45  46  47  48  49 0
 3-21G
 ****


