%nproc=1
%NoSave
%Mem=1900MB
#P OB98/GEN NMR

erre ene a

0 1
  C      -54.681      89.549     155.092
  O      -54.175      90.809     154.660
  P      -55.231      91.993     154.436
  C      -56.122      91.251     152.084
  O      -56.381      91.447     153.461
  C      -56.931      92.241     151.224
  O      -58.321      92.178     151.639
  C      -56.533      93.704     151.364
  O      -57.043      94.429     150.240
  C      -57.287      94.112     152.610
  O      -57.403      95.529     152.716
  C      -58.617      93.338     152.461
  N      -59.201      92.910     153.751
  C      -59.839      93.866     154.540
  O      -59.945      95.052     154.227
  N      -60.329      93.428     155.738
  C      -60.286      92.149     156.202
  O      -60.662      91.827     157.323
  C      -59.729      91.157     155.274
  C      -59.211      91.574     154.118
  O      -54.429      93.050     153.545
  O      -55.738      92.595     155.706
  H      -56.503      95.895     152.562
  H      -54.165      93.816     154.089
  H      -60.736      94.123     156.348
  H      -59.736      90.116     155.580
  H      -58.777      90.855     153.429
  H      -59.371      93.946     151.947
  H      -56.749      93.765     153.497
  H      -55.457      93.876     151.462
  H      -56.887      91.926     150.174
  H      -56.358      90.222     151.802
  H      -55.052      91.392     151.886
  P      -56.003      95.268     149.353
  C      -56.700      97.741     149.265
  O      -55.979      96.748     149.969
  O      -56.188      95.185     147.875
  O      -54.584      94.676     149.809
  H      -53.910      94.886     149.136
  H      -57.043      98.496     149.977
  H      -57.568      97.316     148.750
  H      -56.040      98.214     148.533
  H      -53.872      88.858     155.200
  H      -55.375      89.176     154.368
  H      -55.177      89.667     156.033

 3  4  5  6  7  8  9  10  11  12  13  23  28  29  30  31  32 0
 6-311+G(2d,p)
 ****
 33  34 0
 6-311+G(2d,p)
 ****
 1  2  14  15  16  17  18  19  20  21  22  24  25  26  27 0
 3-21G
 ****
 35  36  37  38  39  40  41  42  43  44  45 0
 3-21G
 ****


