%nproc=1
%NoSave
%Mem=1900MB
#P OB98/GEN NMR

erre ene a

0 1
  C     -337.415     142.075    -421.353
  O     -336.217     141.484    -421.828
  P     -336.220     140.013    -422.475
  C     -337.206     140.808    -424.732
  O     -337.409     140.043    -423.554
  C     -337.436     139.936    -425.963
  O     -336.499     138.844    -425.966
  C     -338.819     139.299    -426.037
  O     -339.796     140.244    -426.438
  C     -338.559     138.161    -427.017
  O     -338.560     138.657    -428.367
  C     -337.134     137.720    -426.625
  N     -337.121     136.535    -425.774
  C     -337.702     135.381    -426.305
  O     -338.186     135.377    -427.435
  N     -337.691     134.232    -425.555
  C     -337.169     134.244    -424.364
  N     -337.124     133.060    -423.689
  C     -336.596     135.452    -423.745
  C     -336.599     136.549    -424.500
  O     -336.294     138.895    -421.495
  O     -334.920     139.982    -423.400
  H     -338.426     137.885    -428.952
  H     -334.105     139.684    -422.925
  H     -336.185     135.412    -422.745
  H     -336.182     137.474    -424.126
  H     -336.539     137.518    -427.525
  H     -339.298     137.355    -426.956
  H     -339.100     138.886    -425.061
  H     -337.250     140.551    -426.858
  H     -337.367     132.231    -424.220
  H     -336.173     141.171    -424.736
  H     -336.496     132.922    -422.910
  H     -337.881     141.668    -424.726
  P     -341.332     139.902    -426.126
  C     -341.228     140.587    -423.625
  O     -341.389     139.536    -424.561
  O     -341.555     138.503    -426.871
  O     -342.304     140.943    -426.573
  H     -342.023     138.640    -427.715
  H     -341.523     140.223    -422.639
  H     -341.857     141.443    -423.890
  H     -340.179     140.893    -423.587
  H     -337.202     143.048    -420.963
  H     -337.832     141.464    -420.580
  H     -338.115     142.159    -422.158

 3  4  5  6  7  8  9  10  11  12  13  23  27  28  29  30  32 0
 6-311+G(2d,p)
 ****
 34  35 0
 6-311+G(2d,p)
 ****
 1  2  14  15  16  17  18  19  20  21  22  24  25  26 0
 3-21G
 ****
 31  33  36  37  38  39  40  41  42  43  44  45  46 0
 3-21G
 ****


