%nproc=1
%NoSave
%Mem=1900MB
#P OB98/GEN NMR

erre ene a

0 1
  C     -507.977     124.642      38.216
  O     -507.435     125.935      38.021
  H     -509.066     124.704      38.149
  H     -507.703     124.264      39.206
  H     -507.612     123.957      37.443
  P     -505.834     126.059      38.059
  C     -505.532     125.932      40.640
  O     -505.354     125.291      39.382
  C     -504.558     125.349      41.657
  O     -504.806     123.935      41.820
  C     -503.095     125.463      41.248
  O     -502.571     126.755      41.465
  C     -502.461     124.394      42.123
  O     -502.189     124.889      43.444
  C     -503.551     123.315      42.178
  N     -500.059     119.815      40.896
  C     -500.096     120.727      41.888
  N     -501.074     121.622      42.168
  C     -502.101     121.481      41.317
  C     -502.207     120.588      40.263
  C     -501.121     119.723      40.059
  N     -501.073     118.803      39.036
  N     -503.399     120.774      39.592
  C     -504.009     121.750      40.230
  N     -503.262     122.207      41.283
  O     -505.601     127.605      38.408
  O     -505.139     125.658      36.801
  H     -501.736     124.165      43.920
  H     -505.387     128.092      37.591
  H     -499.223     120.762      42.530
  H     -504.975     122.166      39.970
  H     -503.673     122.898      43.184
  H     -501.521     124.045      41.699
  H     -502.978     125.168      40.194
  H     -504.727     125.839      42.628
  H     -506.558     125.773      40.984
  H     -505.364     127.008      40.517
  H     -500.232     118.262      38.910
  H     -501.810     118.805      38.342
  P     -501.240     127.170      40.663
  C     -499.421     126.384      42.359
  O     -500.076     126.162      41.118
  O     -500.814     128.564      41.323
  O     -501.422     127.282      39.185
  H     -500.429     129.150      40.632
  H     -498.678     125.629      42.510
  H     -500.137     126.343      43.153
  H     -498.954     127.347      42.349

 6  7  8  9  10  11  12  13  14  15  25  28  32  33  34  35 0
 6-311+G(2d,p)
 ****
 36  37  40 0
 6-311+G(2d,p)
 ****
 1  2  3  4  5  16  17  18  19  20  21  22  23  24 0
 3-21G
 ****
 26  27  29  30  31  38  39 41  42  43  44  45  46  47  48 0
 3-21G
 ****


