%nproc=1
%NoSave
%Mem=1900MB
#P OB98/GEN NMR

erre ene a

0 1
  C     -194.368     240.712      14.039
  O     -194.665     240.455      12.682
  H     -193.462     241.322      14.088
  H     -194.189     239.779      14.580
  H     -195.185     241.265      14.509
  P     -195.892     239.475      12.344
  C     -194.228     237.490      12.295
  O     -195.207     238.234      11.586
  C     -193.321     236.745      11.318
  O     -194.025     235.655      10.686
  C     -192.796     237.587      10.160
  O     -191.774     238.496      10.542
  C     -192.286     236.488       9.244
  O     -191.036     235.983       9.748
  C     -193.409     235.432       9.387
  N     -194.410     235.518       8.325
  C     -194.292     234.597       7.276
  O     -193.384     233.768       7.269
  N     -195.188     234.660       6.236
  C     -196.108     235.574       6.233
  N     -196.941     235.623       5.154
  C     -196.280     236.552       7.326
  C     -195.404     236.471       8.325
  O     -197.056     240.093      11.638
  O     -196.276     238.819      13.753
  H     -190.775     235.241       9.172
  H     -197.041     238.212      13.599
  H     -197.059     237.298       7.269
  H     -195.454     237.167       9.157
  H     -192.990     234.418       9.398
  H     -192.108     236.827       8.219
  H     -193.614     238.112       9.655
  H     -192.501     236.304      11.899
  H     -196.767     234.966       4.407
  H     -194.746     236.791      12.959
  H     -197.485     236.454       4.947
  H     -193.608     238.161      12.898
  P     -191.967     240.045      10.164
  C     -189.751     240.275       8.813
  O     -190.498     240.654       9.958
  O     -192.456     240.689      11.544
  O     -192.909     240.324       9.035
  H     -193.431     240.728      11.590
  H     -188.801     240.767       8.828
  H     -190.285     240.557       7.930
  H     -189.604     239.215       8.818

 6  7  8  9  10  11  12  13  14  15  16  26  30  31  32  33  35 0
 6-311+G(2d,p)
 ****
 37  38 0
 6-311+G(2d,p)
 ****
 1  2  3  4  5  17  18  19  20  21  22  23  24  25 0
 3-21G
 ****
 27  28  29  34  36  39  40  41  42  43  44  45  46 0
 3-21G
 ****


