%nproc=1
%NoSave
%Mem=1900MB
#P OB98/GEN NMR

erre ene a

0 1
  C      581.893     360.491     665.287
  O      582.081     360.877     666.634
  H      582.336     359.503     665.135
  H      582.391     361.205     664.623
  H      580.827     360.445     665.048
  P      581.306     362.194     667.112
  C      582.159     364.563     667.841
  O      582.334     363.430     667.008
  C      583.516     365.210     668.128
  O      584.374     364.305     668.846
  C      584.319     365.568     666.883
  O      583.799     366.680     666.192
  C      585.693     365.825     667.492
  O      585.805     367.158     667.994
  C      585.726     364.806     668.654
  N      586.671     363.721     668.405
  C      587.872     363.796     669.152
  O      588.032     364.712     669.952
  N      588.837     362.852     668.928
  C      588.639     361.941     668.011
  N      589.661     361.054     667.818
  C      587.406     361.830     667.219
  C      586.470     362.749     667.470
  O      581.179     361.961     668.691
  O      580.003     362.438     666.425
  H      585.247     367.198     668.796
  H      582.004     361.708     669.118
  H      587.302     361.042     666.493
  H      585.534     362.746     666.914
  H      586.015     365.299     669.590
  H      586.488     365.691     666.763
  H      584.394     364.692     666.224
  H      583.349     366.105     668.752
  H      590.517     361.201     668.358
  H      581.665     364.289     668.772
  H      589.666     360.349     667.088
  H      581.500     365.266     667.315
  P      583.863     366.787     664.608
  C      585.153     368.257     662.915
  O      585.094     367.763     664.248
  O      582.587     367.159     663.922
  O      584.441     365.348     664.171
  H      585.308     365.131     664.545
  H      586.010     368.888     662.806
  H      584.267     368.819     662.703
  H      585.226     367.436     662.233

 6  7  8  9  10  11  12  13  14  15  16  26  30  31  32  33  35 0
 6-311+G(2d,p)
 ****
 37  38 0
 6-311+G(2d,p)
 ****
 1  2  3  4  5  17  18  19  20  21  22  23  24  25 0
 3-21G
 ****
 27  28  29  34  36  39  40  41  42  43  44  45  46 0
 3-21G
 ****


