%nproc=1
%NoSave
%Mem=1900MB
#P OB98/GEN NMR

erre ene a

0 1
  C      -42.331      19.526      32.244
  O      -41.687      18.298      31.884
  P      -40.095      18.108      31.914
  C      -39.019      16.534      30.176
  O      -39.727      16.633      31.408
  C      -39.172      15.146      29.546
  O      -38.829      14.119      30.495
  C      -40.580      14.810      29.075
  O      -40.886      15.474      27.862
  C      -40.498      13.290      28.969
  O      -39.899      12.890      27.726
  C      -39.582      12.937      30.158
  N      -40.324      12.431      31.304
  C      -40.800      11.120      31.211
  O      -40.639      10.469      30.178
  N      -41.472      10.587      32.285
  C      -41.711      11.323      33.325
  N      -42.374      10.739      34.360
  C      -41.306      12.737      33.426
  C      -40.622      13.219      32.391
  O      -39.463      18.480      33.217
  O      -39.543      19.050      30.741
  H      -39.837      11.915      27.750
  H      -38.656      19.374      30.983
  H      -41.549      13.323      34.299
  H      -40.277      14.246      32.387
  H      -38.843      12.183      29.859
  H      -41.481      12.813      29.021
  H      -41.305      15.081      29.851
  H      -38.463      15.079      28.710
  H      -42.632       9.766      34.262
  H      -37.958      16.726      30.374
  H      -42.608      11.222      35.215
  H      -39.392      17.304      29.493
  P      -42.407      15.831      27.513
  C      -42.812      15.197      25.060
  O      -42.468      16.230      25.963
  O      -43.076      16.789      28.443
  O      -43.144      14.407      27.536
  H      -44.066      14.533      27.828
  H      -43.206      15.647      24.145
  H      -43.571      14.535      25.487
  H      -41.919      14.617      24.815
  H      -43.391      19.415      32.147
  H      -41.994      20.309      31.597
  H      -42.089      19.772      33.257

 3  4  5  6  7  8  9  10  11  12  13  23  27  28  29  30  32 0
 6-311+G(2d,p)
 ****
 34  35 0
 6-311+G(2d,p)
 ****
 1  2  14  15  16  17  18  19  20  21  22  24  25  26 0
 3-21G
 ****
 31  33  36  37  38  39  40  41  42  43  44  45  46 0
 3-21G
 ****


