%nproc=1
%NoSave
%Mem=1900MB
#P OB98/GEN NMR

erre ene a

0 1
  C     -822.871    -394.332      10.471
  O     -822.139    -393.508       9.587
  P     -822.722    -393.298       8.104
  C     -820.448    -394.292       7.243
  O     -821.864    -394.247       7.146
  C     -819.957    -395.746       7.136
  O     -820.547    -396.540       8.184
  C     -820.334    -396.447       5.832
  O     -819.490    -396.038       4.761
  C     -820.184    -397.909       6.243
  O     -818.792    -398.304       6.203
  C     -820.687    -397.891       7.703
  N     -822.061    -398.368       7.840
  C     -822.270    -399.723       7.587
  O     -821.369    -400.490       7.267
  N     -823.575    -400.155       7.689
  C     -824.655    -399.378       7.963
  O     -825.803    -399.796       8.003
  C     -824.377    -397.942       8.174
  C     -823.117    -397.509       8.121
  O     -822.208    -391.818       7.788
  O     -824.209    -393.476       8.037
  H     -821.391    -391.607       8.278
  H     -818.448    -398.017       5.343
  H     -823.742    -401.132       7.537
  H     -825.213    -397.286       8.393
  H     -822.894    -396.467       8.272
  H     -820.038    -398.510       8.326
  H     -820.729    -398.586       5.581
  H     -821.380    -396.237       5.597
  H     -818.871    -395.740       7.290
  H     -820.139    -393.873       8.208
  H     -820.014    -393.679       6.442
  P     -820.230    -395.311       3.532
  C     -819.729    -397.362       2.004
  O     -820.686    -396.473       2.516
  O     -818.969    -394.614       2.789
  O     -821.302    -394.352       3.939
  H     -818.202    -395.194       2.750
  H     -820.252    -398.254       1.647
  H     -818.991    -397.660       2.763
  H     -819.210    -396.911       1.164
  H     -822.367    -394.379      11.414
  H     -822.949    -395.316      10.059
  H     -823.851    -393.924      10.610

 3  4  5  6  7  8  9  10  11  12  13  24  28  29  30  31  32 0
 6-311+G(2d,p)
 ****
 33  34 0
 6-311+G(2d,p)
 ****
 1  2  14  15  16  17  18  19  20  21  22  23  25  26  27 0
 3-21G
 ****
 35  36  37  38  39  40  41  42  43  44  45 0
 3-21G
 ****


