%nproc=1
%NoSave
%Mem=1900MB
#P OB98/GEN NMR

erre ene a

0 1
  C      284.141    -389.326    -292.124
  O      285.269    -388.464    -292.135
  H      284.390    -390.211    -291.529
  H      283.906    -389.650    -293.137
  H      283.278    -388.827    -291.678
  P      285.140    -387.042    -292.861
  C      284.460    -385.922    -290.646
  O      284.097    -386.170    -291.996
  C      285.035    -384.516    -290.504
  O      284.014    -383.549    -290.861
  C      285.506    -384.184    -289.077
  O      286.692    -383.394    -289.160
  C      284.370    -383.351    -288.511
  O      284.809    -382.464    -287.483
  C      283.860    -382.631    -289.765
  N      280.344    -379.416    -291.457
  C      281.651    -379.621    -291.879
  N      282.089    -378.834    -292.885
  N      282.444    -380.516    -291.354
  C      281.864    -381.235    -290.369
  C      280.591    -381.132    -289.863
  C      279.728    -380.130    -290.433
  O      278.568    -379.903    -290.095
  N      280.389    -382.031    -288.834
  C      281.534    -382.674    -288.725
  N      282.464    -382.224    -289.626
  O      284.843    -387.088    -294.325
  O      286.548    -386.331    -292.565
  H      285.334    -381.748    -287.920
  H      287.138    -386.401    -293.332
  H      279.782    -378.711    -291.889
  H      281.753    -383.460    -288.020
  H      284.436    -381.725    -289.977
  H      283.597    -384.008    -288.089
  H      281.523    -378.141    -293.347
  H      285.701    -385.076    -288.474
  H      283.035    -378.980    -293.228
  H      285.854    -384.395    -291.216
  H      285.211    -386.665    -290.345
  H      283.575    -386.034    -290.005
  P      287.914    -383.724    -288.182
  C      289.521    -384.930    -289.787
  O      288.621    -385.070    -288.690
  O      287.601    -383.678    -286.721
  O      288.990    -382.596    -288.562
  H      289.529    -382.389    -287.771
  H      289.930    -385.887    -290.037
  H      290.313    -384.264    -289.516
  H      288.996    -384.535    -290.631

 6  7  8  9  10  11  12  13  14  15  26  29  33  34 0
 6-311+G(2d,p)
 ****
 36  38  39  40  41 0
 6-311+G(2d,p)
 ****
 1  2  3  4  5  16  17  18  19  20  21  22  23  24  25 0
 3-21G
 ****
 27  28  30  31  32  35  37  42  43  44  45  46  47 0
 3-21G
 ****
 48  49 0
 3-21G
 ****


