%nproc=1
%NoSave
%Mem=1900MB
#P OB98/GEN NMR

erre ene a

0 1
  C      764.052     864.970    -618.518
  O      763.296     865.258    -619.677
  H      764.794     865.758    -618.380
  H      764.566     864.011    -618.640
  H      763.419     864.935    -617.627
  P      761.919     864.466    -619.908
  C      760.635     866.556    -619.096
  O      760.818     865.155    -618.950
  C      759.708     867.105    -617.993
  O      758.328     866.713    -618.296
  C      760.053     866.490    -616.642
  O      759.733     867.354    -615.548
  C      759.143     865.258    -616.577
  O      758.915     864.799    -615.252
  C      757.902     865.773    -617.274
  N      754.722     861.859    -616.574
  C      755.434     862.593    -615.627
  N      755.293     862.216    -614.340
  N      756.228     863.601    -615.930
  C      756.299     863.802    -617.276
  C      755.686     863.143    -618.303
  C      754.785     862.065    -617.957
  O      754.153     861.360    -618.741
  N      756.050     863.626    -619.537
  C      756.911     864.590    -619.258
  N      757.091     864.751    -617.895
  O      762.160     863.062    -619.197
  O      761.503     864.304    -621.342
  H      758.437     865.505    -614.773
  H      761.584     862.379    -619.597
  H      754.123     861.109    -616.285
  H      757.427     865.209    -619.997
  H      757.256     866.317    -616.589
  H      759.636     864.448    -617.117
  H      754.845     861.359    -614.081
  H      761.115     866.213    -616.574
  H      756.014     862.541    -613.684
  H      759.731     868.205    -617.988
  H      760.194     866.733    -620.069
  H      761.597     867.082    -619.055
  P      760.776     868.494    -615.163
  C      759.405     870.201    -616.620
  O      760.659     869.654    -616.281
  O      762.215     867.812    -615.459
  O      760.662     868.971    -613.766
  H      762.651     867.573    -614.632
  H      759.534     870.950    -617.374
  H      758.962     870.642    -615.752
  H      758.767     869.427    -616.992

 6  7  8  9  10  11  12  13  14  15  26  29  33  34 0
 6-311+G(2d,p)
 ****
 36  38  39  40  41 0
 6-311+G(2d,p)
 ****
 1  2  3  4  5  16  17  18  19  20  21  22  23  24  25 0
 3-21G
 ****
 27  28  30  31  32  35  37  42  43  44  45  46  47 0
 3-21G
 ****
 48  49 0
 3-21G
 ****


