%nproc=1
%NoSave
%Mem=1900MB
#P OB98/GEN NMR

erre ene a

0 1
  C     -419.950      33.789     190.239
  O     -419.731      32.917     189.148
  P     -420.873      31.996     188.518
  C     -419.395      31.613     186.412
  O     -420.194      31.020     187.433
  C     -418.210      30.727     185.987
  O     -417.249      30.658     187.064
  C     -418.686      29.290     185.741
  O     -419.251      28.928     184.498
  C     -417.533      28.405     186.200
  O     -416.711      27.970     185.117
  C     -416.734      29.316     187.141
  N     -415.451      25.698     190.455
  C     -414.997      25.896     189.165
  N     -414.260      24.898     188.637
  N     -415.267      26.961     188.457
  C     -416.098      27.833     189.090
  C     -416.601      27.754     190.368
  C     -416.261      26.586     191.151
  O     -416.715      26.334     192.266
  N     -417.467      28.781     190.642
  C     -417.532      29.462     189.513
  N     -416.745      28.903     188.531
  O     -422.163      32.669     188.163
  O     -421.175      30.985     189.739
  H     -416.016      27.393     185.476
  H     -422.129      30.767     189.715
  H     -415.275      24.818     190.924
  H     -418.146      30.337     189.350
  H     -415.687      29.368     186.829
  H     -417.906      27.502     186.692
  H     -414.153      23.998     189.097
  H     -419.491      29.095     186.467
  H     -414.051      24.928     187.638
  H     -417.678      31.167     185.137
  H     -419.040      32.578     186.791
  H     -420.017      31.819     185.533
  P     -420.751      28.443     184.247
  C     -420.148      27.968     181.804
  O     -420.764      27.463     182.979
  O     -421.513      29.747     183.696
  O     -421.459      27.906     185.459
  H     -422.476      29.657     183.844
  H     -420.465      27.371     180.948
  H     -419.057      27.885     181.905
  H     -420.423      29.011     181.641
  H     -419.039      34.296     190.479
  H     -420.277      33.224     191.087
  H     -420.699      34.506     189.977

 3  4  5  6  7  8  9  10  11  12  23  26  30  31 0
 6-311+G(2d,p)
 ****
 33  35  36  37  38 0
 6-311+G(2d,p)
 ****
 1  2  13  14  15  16  17  18  19  20  21  22  24  25 0
 3-21G
 ****
 27  28  29  32  34  39  40  41  42  43  44  45  46  47  48  49 0
 3-21G
 ****


