%nproc=1
%NoSave
%Mem=1900MB
#P OB98/GEN NMR

erre ene a

0 1
  C     -143.629    -104.953     459.276
  O     -143.542    -105.807     460.398
  P     -144.817    -106.653     460.880
  C     -145.670    -104.893     462.562
  O     -145.908    -105.561     461.323
  C     -146.896    -104.985     463.472
  O     -148.063    -104.465     462.807
  C     -147.254    -106.405     463.891
  O     -146.383    -106.860     464.908
  C     -148.703    -106.225     464.327
  O     -148.781    -105.727     465.674
  C     -149.212    -105.168     463.325
  N     -150.014    -105.754     462.258
  C     -151.393    -105.814     462.495
  O     -151.861    -105.417     463.562
  N     -152.201    -106.370     461.531
  C     -151.676    -106.843     460.444
  N     -152.527    -107.389     459.535
  C     -150.225    -106.827     460.171
  C     -149.461    -106.275     461.113
  O     -144.533    -107.721     461.880
  O     -145.417    -107.215     459.502
  H     -149.735    -105.656     465.880
  H     -144.865    -107.950     459.142
  H     -149.831    -107.242     459.256
  H     -148.386    -106.223     460.998
  H     -149.826    -104.416     463.838
  H     -149.259    -107.165     464.300
  H     -147.214    -107.068     463.020
  H     -146.706    -104.367     464.359
  H     -153.510    -107.408     459.772
  H     -145.457    -103.842     462.349
  H     -152.222    -107.818     458.674
  H     -144.793    -105.332     463.045
  P     -146.482    -108.370     465.429
  C     -147.864    -107.947     467.550
  O     -147.850    -108.513     466.255
  O     -145.266    -108.895     466.115
  O     -146.782    -109.206     464.093
  H     -146.228    -110.006     464.089
  H     -148.902    -107.811     467.863
  H     -147.360    -106.977     467.560
  H     -147.367    -108.624     468.250
  H     -142.683    -104.480     459.114
  H     -144.376    -104.207     459.453
  H     -143.894    -105.525     458.412

 3  4  5  6  7  8  9  10  11  12  13  23  27  28  29  30  32 0
 6-311+G(2d,p)
 ****
 34  35 0
 6-311+G(2d,p)
 ****
 1  2  14  15  16  17  18  19  20  21  22  24  25  26 0
 3-21G
 ****
 31  33  36  37  38  39  40  41  42  43  44  45  46 0
 3-21G
 ****


