%nproc=1
%NoSave
%Mem=1900MB
#P OB98/GEN NMR

erre ene a

0 1
  C      -70.476      -0.163      30.759
  O      -71.651      -0.914      30.546
  H      -70.707       0.661      31.438
  H      -70.123       0.251      29.811
  H      -69.690      -0.775      31.208
  P      -71.532      -2.354      29.857
  C      -69.510      -3.292      31.157
  O      -70.914      -3.351      30.950
  C      -68.935      -4.695      31.385
  O      -67.497      -4.594      31.542
  C      -69.481      -5.324      32.671
  O      -69.506      -6.747      32.605
  C      -68.460      -4.896      33.713
  O      -68.442      -5.744      34.861
  C      -67.168      -4.928      32.901
  N      -64.267      -3.535      36.853
  C      -65.335      -4.409      36.820
  N      -65.672      -4.991      37.995
  N      -66.024      -4.671      35.740
  C      -65.621      -3.965      34.657
  C      -64.593      -3.055      34.571
  C      -63.816      -2.799      35.766
  O      -62.875      -2.017      35.855
  N      -64.490      -2.533      33.306
  C      -65.455      -3.122      32.629
  N      -66.154      -4.019      33.399
  O      -70.320      -2.179      28.825
  O      -72.771      -2.847      29.172
  H      -67.870      -5.319      35.528
  H      -70.375      -2.849      28.120
  H      -63.753      -3.391      37.704
  H      -65.678      -2.948      31.585
  H      -66.735      -5.936      32.902
  H      -68.722      -3.893      34.057
  H      -65.298      -4.667      38.873
  H      -70.475      -4.964      32.927
  H      -66.619      -5.375      38.054
  H      -69.114      -5.322      30.505
  H      -69.344      -2.662      32.034
  H      -69.021      -2.808      30.311
  P      -70.808      -7.463      32.007
  C      -69.593      -8.426      29.864
  O      -70.375      -8.637      31.017
  O      -71.438      -6.359      31.040
  O      -71.787      -7.925      33.042
  H      -72.311      -6.076      31.369
  H      -69.435      -9.359      29.365
  H      -68.649      -8.007      30.145
  H      -70.101      -7.752      29.207

 6  7  8  9  10  11  12  13  14  15  26  29  33  34 0
 6-311+G(2d,p)
 ****
 36  38  39  40  41 0
 6-311+G(2d,p)
 ****
 1  2  3  4  5  16  17  18  19  20  21  22  23  24  25 0
 3-21G
 ****
 27  28  30  31  32  35  37  42  43  44  45  46  47 0
 3-21G
 ****
 48  49 0
 3-21G
 ****


