%nproc=1
%NoSave
%Mem=1900MB
#P OB98/GEN NMR

erre ene a

0 1
  C     -860.041    1504.551    -761.569
  O     -860.499    1505.085    -760.314
  P     -860.692    1506.687    -760.207
  C     -863.286    1506.809    -760.506
  O     -861.992    1507.081    -761.059
  C     -864.423    1507.434    -761.373
  O     -864.253    1508.888    -761.464
  C     -864.462    1506.902    -762.828
  O     -865.792    1506.936    -763.249
  C     -863.629    1507.965    -763.578
  O     -863.910    1507.880    -765.001
  C     -864.109    1509.212    -762.869
  N     -863.718    1514.019    -764.441
  C     -864.820    1513.151    -764.413
  N     -865.983    1513.660    -764.878
  N     -864.777    1511.936    -764.038
  C     -863.543    1511.555    -763.573
  C     -862.388    1512.297    -763.526
  C     -862.449    1513.661    -764.026
  O     -861.489    1514.459    -764.062
  N     -861.324    1511.582    -763.027
  C     -861.854    1510.378    -762.788
  N     -863.206    1510.318    -763.040
  O     -859.464    1507.261    -761.065
  O     -860.652    1507.206    -758.802
  H     -864.889    1507.898    -765.077
  H     -858.821    1507.661    -760.466
  H     -863.817    1514.960    -764.776
  H     -861.307    1509.544    -762.379
  H     -865.093    1509.551    -763.229
  H     -862.571    1507.774    -763.428
  H     -866.111    1514.630    -765.166
  H     -864.045    1505.860    -762.929
  H     -866.799    1513.080    -764.839
  H     -865.383    1507.213    -760.876
  H     -863.322    1507.233    -759.485
  H     -863.395    1505.721    -760.387
  P     -866.448    1505.531    -763.698
  C     -867.468    1504.746    -761.441
  O     -866.424    1504.554    -762.386
  O     -865.378    1504.883    -764.646
  O     -867.824    1505.649    -764.377
  H     -865.765    1504.244    -765.257
  H     -868.201    1503.925    -761.567
  H     -867.981    1505.715    -761.548
  H     -867.052    1504.688    -760.434
  H     -859.960    1503.487    -761.495
  H     -859.084    1504.966    -761.805
  H     -860.739    1504.803    -762.340

 3  4  5  6  7  8  9  10  11  12  23  26  30  31 0
 6-311+G(2d,p)
 ****
 33  35  36  37  38 0
 6-311+G(2d,p)
 ****
 1  2  13  14  15  16  17  18  19  20  21  22  24  25 0
 3-21G
 ****
 27  28  29  32  34  39  40  41  42  43  44  45  46  47  48  49 0
 3-21G
 ****


