%nproc=1
%NoSave
%Mem=1900MB
#P OB98/GEN NMR

erre ene a

0 1
  C     -293.971    -204.255    -255.055
  O     -293.353    -202.991    -255.212
  H     -294.308    -204.354    -254.021
  H     -293.249    -205.048    -255.270
  H     -294.834    -204.346    -255.722
  P     -292.997    -202.553    -256.713
  C     -295.247    -201.399    -257.404
  O     -294.378    -202.515    -257.538
  C     -296.414    -201.521    -258.381
  O     -297.219    -200.324    -258.374
  C     -295.996    -201.665    -259.835
  O     -295.458    -202.936    -260.124
  C     -297.321    -201.387    -260.539
  O     -298.130    -202.569    -260.617
  C     -297.971    -200.336    -259.607
  N     -298.031    -199.029    -260.233
  C     -299.289    -198.659    -260.737
  O     -300.251    -199.419    -260.607
  N     -299.407    -197.464    -261.394
  C     -298.365    -196.713    -261.566
  N     -298.541    -195.556    -262.257
  C     -297.020    -197.068    -261.058
  C     -296.923    -198.227    -260.407
  O     -292.265    -203.856    -257.289
  O     -292.194    -201.302    -256.825
  H     -297.585    -203.248    -261.065
  H     -292.751    -204.683    -257.121
  H     -296.183    -196.401    -261.212
  H     -295.980    -198.568    -260.000
  H     -298.995    -200.640    -259.348
  H     -297.168    -201.040    -261.562
  H     -295.295    -200.865    -260.108
  H     -297.042    -202.365    -258.061
  H     -299.467    -195.382    -262.634
  H     -294.703    -200.461    -257.576
  H     -297.789    -194.937    -262.518
  H     -295.615    -201.382    -256.371
  P     -295.060    -203.353    -261.620
  C     -292.681    -202.493    -261.117
  O     -293.781    -202.460    -262.021
  O     -296.170    -203.313    -262.613
  O     -294.404    -204.801    -261.435
  H     -293.626    -204.823    -260.850
  H     -291.897    -201.866    -261.487
  H     -292.323    -203.497    -261.028
  H     -292.997    -202.140    -260.157

 6  7  8  9  10  11  12  13  14  15  16  26  30  31  32  33  35 0
 6-311+G(2d,p)
 ****
 37  38 0
 6-311+G(2d,p)
 ****
 1  2  3  4  5  17  18  19  20  21  22  23  24  25 0
 3-21G
 ****
 27  28  29  34  36  39  40  41  42  43  44  45  46 0
 3-21G
 ****


