%nproc=1
%NoSave
%Mem=1900MB
#P OB98/GEN NMR

erre ene a

0 1
  C      -37.746    -505.034    -891.420
  O      -37.460    -506.013    -892.400
  P      -37.516    -507.564    -891.960
  C      -36.637    -509.657    -893.230
  O      -37.361    -508.420    -893.300
  C      -36.588    -510.301    -894.600
  O      -37.908    -510.620    -895.090
  C      -35.974    -509.418    -895.690
  O      -34.551    -509.419    -895.670
  C      -36.460    -510.105    -896.970
  O      -35.661    -511.247    -897.250
  C      -37.889    -510.540    -896.540
  N      -42.115    -510.034    -899.280
  C      -41.451    -511.181    -898.880
  N      -41.928    -512.341    -899.340
  N      -40.381    -511.182    -898.120
  C      -39.995    -509.935    -897.740
  C      -40.607    -508.722    -898.070
  C      -41.762    -508.733    -898.910
  O      -42.380    -507.765    -899.350
  N      -39.928    -507.665    -897.490
  C      -38.924    -508.241    -896.820
  N      -38.924    -509.589    -897.000
  O      -39.065    -507.773    -891.570
  O      -36.604    -507.935    -890.830
  H      -35.899    -511.931    -896.600
  H      -39.156    -508.572    -891.030
  H      -42.915    -510.097    -899.860
  H      -38.206    -507.703    -896.240
  H      -38.141    -511.540    -896.940
  H      -36.433    -509.457    -897.840
  H      -42.723    -512.416    -900.000
  H      -36.363    -508.391    -895.660
  H      -41.425    -513.216    -899.140
  H      -36.000    -511.251    -894.530
  H      -37.137    -510.344    -892.530
  H      -35.637    -509.463    -892.860
  P      -33.802    -508.271    -896.490
  C      -32.291    -506.265    -895.780
  O      -32.983    -507.412    -895.380
  O      -35.004    -507.283    -896.910
  O      -33.030    -508.742    -897.660
  H      -34.771    -506.789    -897.700
  H      -32.012    -505.691    -894.880
  H      -32.915    -505.635    -896.440
  H      -31.369    -506.548    -896.300
  H      -37.670    -504.060    -891.856
  H      -37.046    -505.120    -890.615
  H      -38.738    -505.182    -891.047

 3  4  5  6  7  8  9  10  11  12  23  26  30  31 0
 6-311+G(2d,p)
 ****
 33  35  36  37  38 0
 6-311+G(2d,p)
 ****
 1  2  13  14  15  16  17  18  19  20  21  22  24  25 0
 3-21G
 ****
 27  28  29  32  34  39  40  41  42  43  44  45  46  47  48  49 0
 3-21G
 ****


