%nproc=1
%NoSave
%Mem=1900MB
#P OB98/GEN NMR

erre ene a

0 1
  C       68.662     152.020      60.323
  O       67.335     152.319      60.711
  H       69.327     152.234      61.164
  H       68.959     152.647      59.478
  H       68.761     150.963      60.060
  P       66.141     152.000      59.690
  C       64.704     153.354      58.043
  O       65.848     153.359      58.884
  C       64.513     154.721      57.389
  O       64.182     155.690      58.418
  C       65.757     155.229      56.647
  O       65.334     155.912      55.469
  C       66.366     156.220      57.621
  O       67.141     157.220      56.961
  C       65.127     156.774      58.322
  N       67.537     160.457      60.804
  C       67.341     160.275      59.448
  N       67.888     161.196      58.625
  N       66.667     159.274      58.943
  C       66.164     158.437      59.881
  C       66.290     158.508      61.249
  C       67.050     159.613      61.797
  O       67.267     159.820      62.984
  N       65.657     157.454      61.862
  C       65.154     156.747      60.865
  N       65.444     157.296      59.643
  O       64.929     151.370      60.298
  O       66.813     151.056      58.589
  H       67.889     156.760      56.520
  H       66.593     150.121      58.755
  H       68.072     161.242      61.138
  H       64.583     155.833      60.972
  H       64.660     157.594      57.762
  H       67.016     155.692      58.329
  H       68.404     162.001      58.944
  H       66.453     154.427      56.385
  H       67.737     161.096      57.627
  H       63.650     154.667      56.715
  H       63.828     153.113      58.656
  H       64.821     152.583      57.274
  P       66.165     155.701      54.113
  C       68.179     156.781      52.925
  O       67.262     156.866      54.011
  O       65.349     155.484      52.881
  O       67.061     154.411      54.445
  H       67.228     153.921      53.616
  H       68.856     157.608      52.964
  H       67.640     156.805      52.001
  H       68.729     155.866      52.994

 6  7  8  9  10  11  12  13  14  15  26  29  33  34 0
 6-311+G(2d,p)
 ****
 36  38  39  40  41 0
 6-311+G(2d,p)
 ****
 1  2  3  4  5  16  17  18  19  20  21  22  23  24  25 0
 3-21G
 ****
 27  28  30  31  32  35  37  42  43  44  45  46  47 0
 3-21G
 ****
 48  49 0
 3-21G
 ****


