%nproc=1
%NoSave
%Mem=1900MB
#P OB98/GEN NMR

erre ene a

0 1
  C       90.537    -102.456      10.911
  O       91.923    -102.227      10.759
  H       90.373    -103.521      11.086
  H       90.017    -102.168       9.994
  H       90.139    -101.892      11.758
  P       92.421    -100.704      10.800
  C       91.563    -100.001       8.458
  O       91.425     -99.858       9.863
  C       90.908     -98.823       7.737
  O       91.157     -98.951       6.313
  C       89.389     -98.740       7.939
  O       89.014     -97.365       8.060
  C       88.831     -99.312       6.649
  O       87.518     -98.834       6.361
  C       89.886     -98.873       5.641
  N       87.509     -99.744       1.285
  C       87.326     -98.742       2.218
  N       86.356     -97.839       1.955
  N       88.029     -98.635       3.314
  C       88.987     -99.587       3.427
  C       89.265    -100.632       2.578
  C       88.458    -100.756       1.383
  O       88.558    -101.634       0.532
  N       90.292    -101.404       3.061
  C       90.632    -100.826       4.198
  N       89.874     -99.717       4.460
  O       93.783    -100.744       9.960
  O       92.637    -100.137      12.163
  H       87.144     -99.407       5.657
  H       94.534    -100.522      10.541
  H       86.929     -99.789       0.465
  H       91.407    -101.171       4.869
  H       89.739     -97.840       5.304
  H       88.786    -100.406       6.719
  H       85.809     -97.834       1.108
  H       89.043     -99.289       8.816
  H       86.228     -97.073       2.606
  H       91.398     -97.897       8.063
  H       91.079    -100.932       8.147
  H       92.626    -100.049       8.201
  P       88.180     -96.951       9.367
  C       85.803     -97.440       8.461
  O       86.816     -97.801       9.387
  O       87.692     -95.463       9.032
  O       88.976     -96.992      10.629
  H       88.188     -94.822       9.572
  H       84.959     -98.085       8.586
  H       86.180     -97.536       7.464
  H       85.506     -96.427       8.634

 6  7  8  9  10  11  12  13  14  15  26  29  33  34 0
 6-311+G(2d,p)
 ****
 36  38  39  40  41 0
 6-311+G(2d,p)
 ****
 1  2  3  4  5  16  17  18  19  20  21  22  23  24  25 0
 3-21G
 ****
 27  28  30  31  32  35  37  42  43  44  45  46  47 0
 3-21G
 ****
 48  49 0
 3-21G
 ****


