%nproc=1
%NoSave
%Mem=1900MB
#P OB98/GEN NMR

erre ene a

0 1
  C      306.678    -241.991    -170.389
  O      307.107    -242.542    -169.162
  H      307.523    -241.989    -171.084
  H      306.349    -240.961    -170.232
  H      305.863    -242.575    -170.826
  P      306.006    -243.070    -168.129
  C      306.284    -245.475    -169.026
  O      305.376    -244.422    -168.733
  C      305.687    -246.847    -168.708
  O      306.684    -247.876    -168.875
  C      305.206    -246.949    -167.260
  O      303.906    -246.446    -167.015
  C      305.263    -248.455    -167.020
  O      304.055    -249.094    -167.470
  C      306.454    -248.891    -167.878
  N      308.788    -251.609    -164.236
  C      307.480    -251.680    -164.669
  N      306.678    -252.546    -164.010
  N      307.003    -250.954    -165.649
  C      307.895    -250.068    -166.148
  C      309.213    -249.894    -165.792
  C      309.746    -250.744    -164.743
  O      310.897    -250.714    -164.317
  N      309.805    -248.896    -166.529
  C      308.830    -248.419    -167.271
  N      307.656    -249.117    -167.100
  O      304.801    -242.025    -168.294
  O      306.454    -243.155    -166.702
  H      303.869    -248.792    -168.378
  H      304.279    -241.985    -167.473
  H      309.107    -252.212    -163.499
  H      308.926    -247.594    -167.970
  H      306.239    -249.824    -168.417
  H      305.368    -248.692    -165.957
  H      306.966    -253.039    -163.177
  H      305.924    -246.468    -166.587
  H      305.666    -252.437    -164.116
  H      304.879    -247.064    -169.419
  H      307.172    -245.304    -168.414
  H      306.596    -245.426    -170.072
  P      303.188    -246.725    -165.611
  C      303.981    -244.518    -164.486
  O      304.018    -245.926    -164.495
  O      303.545    -248.259    -165.329
  O      301.717    -246.488    -165.596
  H      302.812    -248.834    -165.613
  H      304.585    -244.150    -163.683
  H      302.972    -244.189    -164.353
  H      304.358    -244.145    -165.415

 6  7  8  9  10  11  12  13  14  15  26  29  33  34 0
 6-311+G(2d,p)
 ****
 36  38  39  40  41 0
 6-311+G(2d,p)
 ****
 1  2  3  4  5  16  17  18  19  20  21  22  23  24  25 0
 3-21G
 ****
 27  28  30  31  32  35  37  42  43  44  45  46  47 0
 3-21G
 ****
 48  49 0
 3-21G
 ****


