%nproc=1
%NoSave
%Mem=1900MB
#P OB98/GEN NMR

erre ene a

0 1
  C     -196.995      54.522    -300.847
  O     -198.112      54.119    -300.079
  H     -196.092      54.085    -300.407
  H     -196.890      55.611    -300.844
  H     -197.092      54.158    -301.874
  P     -199.524      54.834    -300.365
  C     -201.989      54.060    -300.426
  O     -200.636      53.692    -300.159
  C     -202.690      52.994    -301.274
  O     -202.090      52.926    -302.585
  C     -202.572      51.586    -300.706
  O     -203.302      51.381    -299.515
  C     -202.862      50.721    -301.924
  O     -204.250      50.487    -302.139
  C     -202.292      51.585    -303.078
  N     -201.067      51.022    -303.633
  C     -201.217      49.839    -304.353
  O     -202.299      49.270    -304.508
  N     -200.068      49.298    -304.860
  C     -198.804      49.784    -304.674
  O     -197.805      49.232    -305.121
  C     -198.705      51.025    -303.881
  C     -199.823      51.575    -303.405
  O     -199.633      55.554    -301.679
  O     -199.736      55.780    -299.094
  H     -204.683      51.360    -302.209
  H     -200.425      56.465    -299.270
  H     -200.157      48.447    -305.392
  H     -197.720      51.441    -303.714
  H     -199.776      52.490    -302.815
  H     -203.025      51.663    -303.892
  H     -202.383      49.740    -301.842
  H     -201.519      51.413    -300.450
  H     -203.742      53.285    -301.394
  H     -201.971      55.007    -300.980
  H     -202.524      54.213    -299.484
  P     -202.931      50.254    -298.441
  C     -203.480      49.781    -295.941
  O     -203.473      50.731    -297.001
  O     -201.558      49.669    -298.528
  O     -203.980      49.088    -298.828
  H     -203.539      48.235    -298.664
  H     -203.864      50.240    -295.054
  H     -202.482      49.438    -295.763
  H     -204.099      48.951    -296.210

 6  7  8  9  10  11  12  13  14  15  16  26  31  32  33  34  35 0
 6-311+G(2d,p)
 ****
 36  37 0
 6-311+G(2d,p)
 ****
 1  2  3  4  5  17  18  19  20  21  22  23  24  25 0
 3-21G
 ****
 27  28  29  30  38  39  40  41  42  43  44  45 0
 3-21G
 ****


