%nproc=1
%NoSave
%Mem=1900MB
#P OB98/GEN NMR

erre ene a

0 1
  C      220.023    -157.841      31.967
  O      220.007    -158.952      31.090
  P      218.922    -160.101      31.362
  C      220.541    -161.770      32.545
  O      219.409    -160.918      32.653
  C      220.852    -162.393      33.910
  O      221.039    -161.360      34.901
  C      219.730    -163.272      34.446
  O      219.737    -164.553      33.831
  C      220.052    -163.312      35.932
  O      221.048    -164.306      36.219
  C      220.611    -161.894      36.171
  N      219.653    -161.016      36.834
  C      219.200    -161.438      38.082
  O      219.560    -162.497      38.600
  N      218.290    -160.624      38.696
  C      217.754    -159.484      38.176
  O      216.897    -158.821      38.753
  C      218.246    -159.098      36.841
  C      219.151    -159.875      36.240
  O      219.144    -161.129      30.156
  O      217.513    -159.619      31.430
  H      220.640    -165.175      36.026
  H      218.288    -161.513      29.885
  H      217.969    -160.899      39.610
  H      217.843    -158.198      36.397
  H      219.517    -159.618      35.251
  H      221.515    -161.948      36.794
  H      219.174    -163.554      36.538
  H      218.761    -162.778      34.301
  H      221.783    -162.962      33.827
  H      221.399    -161.190      32.201
  H      220.331    -162.550      31.806
  P      218.362    -165.383      33.860
  C      219.154    -166.968      35.783
  O      218.259    -165.965      35.353
  O      218.751    -166.637      32.946
  O      217.193    -164.591      33.376
  H      219.692    -166.877      33.030
  H      220.150    -166.831      35.346
  H      218.767    -167.949      35.497
  H      219.237    -166.922      36.871
  H      220.792    -157.160      31.666
  H      220.214    -158.177      32.965
  H      219.075    -157.346      31.933

 3  4  5  6  7  8  9  10  11  12  13  23  28  29  30  31  32 0
 6-311+G(2d,p)
 ****
 33  34 0
 6-311+G(2d,p)
 ****
 1  2  14  15  16  17  18  19  20  21  22  24  25  26 0
 3-21G
 ****
 27  35  36  37  38  39  40  41  42  43  44  45 0
 3-21G
 ****


