%nproc=1
%NoSave
%Mem=1900MB
#P OB98/GEN NMR

erre ene a

0 1
  C      -24.410      -7.207     -78.060
  O      -25.247      -6.820     -76.989
  H      -24.845      -6.893     -79.013
  H      -23.437      -6.720     -77.942
  H      -24.266      -8.291     -78.055
  P      -26.743      -7.401     -76.995
  C      -27.989      -5.264     -77.804
  O      -27.514      -6.563     -78.128
  C      -29.347      -5.046     -78.462
  O      -29.196      -4.964     -79.898
  C      -30.339      -6.176     -78.213
  O      -30.990      -6.063     -76.960
  C      -31.311      -5.956     -79.360
  O      -32.176      -4.848     -79.060
  C      -30.356      -5.592     -80.508
  N      -30.508      -7.851     -85.101
  C      -30.998      -6.673     -84.658
  N      -30.898      -6.134     -83.426
  C      -30.195      -6.937     -82.612
  C      -29.626      -8.162     -82.922
  C      -29.808      -8.624     -84.237
  N      -29.336      -9.839     -84.684
  N      -29.000      -8.702     -81.816
  C      -29.173      -7.808     -80.863
  N      -29.918      -6.740     -81.286
  O      -27.377      -6.837     -75.638
  O      -26.867      -8.883     -77.129
  H      -32.662      -5.078     -78.246
  H      -28.206      -7.308     -75.429
  H      -31.550      -6.089     -85.390
  H      -28.791      -7.893     -79.854
  H      -30.794      -4.873     -81.210
  H      -31.950      -6.824     -79.545
  H      -29.866      -7.159     -78.328
  H      -29.748      -4.085     -78.114
  H      -27.275      -4.520     -78.175
  H      -29.644     -10.145     -85.593
  H      -28.946     -10.483     -84.013
  H      -28.076      -5.169     -76.717
  P      -31.339      -7.424     -76.180
  C      -33.691      -7.615     -77.265
  O      -32.409      -8.204     -77.087
  O      -32.210      -6.913     -74.940
  O      -30.149      -8.217     -75.749
  H      -32.072      -7.484     -74.158
  H      -34.290      -8.246     -77.888
  H      -33.582      -6.656     -77.727
  H      -34.166      -7.500     -76.313

 6  7  8  9  10  11  12  13  14  15  25  28  32  33  34  35 0
 6-311+G(2d,p)
 ****
 36  39  40 0
 6-311+G(2d,p)
 ****
 1  2  3  4  5  16  17  18  19  20  21  22  23  24 0
 3-21G
 ****
 26  27  29  30  31  37  38  41  42  43  44  45  46  47 0
 3-21G
 ****
 48 0
 3-21G
 ****


