%nproc=1
%NoSave
%Mem=1900MB
#P OB98/GEN NMR

erre ene a

0 1
  C      556.356     382.491    1049.136
  O      556.035     383.163    1047.923
  P      554.746     384.145    1047.964
  C      552.849     382.450    1048.585
  O      553.479     383.230    1047.587
  C      551.544     381.888    1048.071
  O      550.575     382.971    1047.872
  C      551.651     381.168    1046.702
  O      552.091     379.844    1046.889
  C      550.220     381.266    1046.200
  O      549.384     380.255    1046.783
  C      549.797     382.678    1046.666
  N      548.038     384.719    1042.388
  C      547.662     383.551    1043.020
  N      546.629     382.844    1042.470
  N      548.240     383.117    1044.113
  C      549.250     383.897    1044.555
  C      549.721     385.079    1043.985
  C      549.040     385.575    1042.826
  O      549.252     386.659    1042.271
  N      550.761     385.593    1044.701
  C      550.919     384.750    1045.715
  N      550.014     383.714    1045.691
  O      554.969     385.071    1046.671
  O      554.599     384.940    1049.230
  H      549.749     379.367    1046.590
  H      555.361     385.942    1046.937
  H      547.533     385.022    1041.567
  H      551.657     384.861    1046.490
  H      548.748     382.714    1046.959
  H      550.147     381.131    1045.095
  H      546.178     383.109    1041.622
  H      552.318     381.708    1046.036
  H      546.353     381.989    1042.944
  H      551.119     381.203    1048.809
  H      552.667     383.052    1049.465
  H      553.534     381.607    1048.874
  P      553.499     379.410    1046.227
  C      552.461     378.620    1043.991
  O      553.178     378.261    1045.150
  O      554.236     378.646    1047.405
  O      554.303     380.558    1045.729
  H      555.221     378.822    1047.362
  H      552.778     377.942    1043.162
  H      552.659     379.664    1043.663
  H      551.399     378.477    1044.144
  H      557.219     381.876    1048.986
  H      555.530     381.879    1049.434
  H      556.560     383.212    1049.900

 3  4  5  6  7  8  9  10  11  12  23  26  30  31 0
 6-311+G(2d,p)
 ****
 33  35  36  37  38 0
 6-311+G(2d,p)
 ****
 1  2  13  14  15  16  17  18  19  20  21  22  24  25 0
 3-21G
 ****
 27  28  29  32  34  39  40  41  42  43  44  45  46  47  48  49 0
 3-21G
 ****


