%nproc=1
%NoSave
%Mem=1900MB
#P OB98/GEN NMR

erre ene a

0 1
  C     -889.690     292.554     -67.413
  O     -890.740     292.455     -66.447
  P     -890.670     291.592     -65.110
  C     -891.940     292.914     -63.238
  O     -891.990     291.915     -64.245
  C     -893.280     293.071     -62.490
  O     -894.330     293.461     -63.412
  C     -893.710     291.715     -61.892
  O     -893.200     291.299     -60.643
  C     -895.240     291.755     -61.959
  O     -895.820     292.224     -60.737
  C     -895.520     292.729     -63.108
  N     -898.640     292.970     -67.165
  C     -898.460     293.894     -66.146
  N     -899.240     295.002     -66.187
  N     -897.600     293.732     -65.166
  C     -896.960     292.565     -65.211
  C     -897.050     291.558     -66.148
  C     -897.960     291.758     -67.260
  O     -898.140     290.980     -68.191
  N     -896.230     290.484     -65.844
  C     -895.670     290.830     -64.699
  N     -896.050     292.078     -64.269
  O     -889.360     291.604     -64.387
  O     -890.930     290.076     -65.641
  H     -896.780     292.277     -60.856
  H     -890.420     289.494     -65.055
  H     -899.300     293.141     -67.910
  H     -894.950     290.213     -64.151
  H     -896.260     293.488     -62.784
  H     -895.630     290.754     -62.122
  H     -900.000     295.122     -66.849
  H     -893.420     290.944     -62.598
  H     -899.270     295.555     -65.339
  H     -893.220     293.865     -61.750
  H     -891.670     293.857     -63.722
  H     -891.150     292.688     -62.523
  P     -892.270     290.004     -60.403
  C     -890.290     291.253     -59.328
  O     -891.330     290.306     -59.113
  O     -891.210     290.065     -61.625
  O     -892.980     288.702     -60.375
  H     -890.760     289.212     -61.713
  H     -889.550     291.158     -58.509
  H     -890.690     292.274     -59.289
  H     -889.780     291.110     -60.292
  H     -889.999     293.196     -68.211
  H     -889.471     291.582     -67.802
  H     -888.815     292.958     -66.948

 3  4  5  6  7  8  9  10  11  12  23  26  30  31 0
 6-311+G(2d,p)
 ****
 33  35  36  37  38 0
 6-311+G(2d,p)
 ****
 1  2  13  14  15  16  17  18  19  20  21  22  24  25 0
 3-21G
 ****
 27  28  29  32  34  39  40  41  42  43  44  45  46  47  48  49 0
 3-21G
 ****


