%nproc=1
%NoSave
%Mem=1900MB
#P OB98/GEN NMR

erre ene a

0 1
  C     -434.767     -74.462     189.153
  O     -433.541     -75.019     188.727
  H     -435.510     -74.615     188.374
  H     -434.660     -73.385     189.332
  H     -435.112     -74.959     190.065
  P     -432.254     -74.870     189.673
  C     -430.340     -74.747     187.942
  O     -431.029     -75.550     188.897
  C     -429.875     -75.605     186.762
  O     -429.310     -76.826     187.305
  C     -431.028     -75.988     185.820
  O     -430.769     -75.667     184.454
  C     -431.292     -77.455     186.168
  O     -431.865     -78.214     185.115
  C     -429.921     -77.953     186.640
  N     -429.986     -79.101     187.527
  C     -430.596     -80.256     187.041
  O     -431.076     -80.384     185.916
  N     -430.652     -81.313     187.915
  C     -430.170     -81.330     189.195
  O     -430.248     -82.307     189.923
  C     -429.551     -80.075     189.656
  C     -429.487     -79.042     188.822
  O     -432.432     -75.327     191.087
  O     -431.900     -73.307     189.607
  H     -432.096     -79.092     185.473
  H     -432.208     -72.867     190.418
  H     -431.095     -82.153     187.572
  H     -429.170     -80.053     190.668
  H     -429.036     -78.106     189.130
  H     -429.292     -78.224     185.787
  H     -431.999     -77.488     187.003
  H     -431.935     -75.405     186.046
  H     -429.079     -75.074     186.233
  H     -429.484     -74.287     188.445
  H     -431.015     -73.956     187.577
  P     -431.244     -74.328     183.723
  C     -431.257     -75.425     181.340
  O     -430.771     -74.400     182.195
  O     -430.972     -73.062     184.463
  O     -432.850     -74.512     183.635
  H     -433.231     -73.616     183.707
  H     -430.831     -75.308     180.365
  H     -432.323     -75.359     181.274
  H     -430.983     -76.380     181.737

 6  7  8  9  10  11  12  13  14  15  16  26  31  32  33  34  35 0
 6-311+G(2d,p)
 ****
 36  37 0
 6-311+G(2d,p)
 ****
 1  2  3  4  5  17  18  19  20  21  22  23  24  25 0
 3-21G
 ****
 27  28  29  30  38  39  40  41  42  43  44  45 0
 3-21G
 ****


