%nproc=1
%NoSave
%Mem=1900MB
#P OB98/GEN NMR

erre ene a

0 1
  C      -51.480      30.036      -3.976
  O      -51.647      30.609      -2.675
  P      -52.643      29.969      -1.591
  C      -51.191      30.372       0.488
  O      -52.430      30.658      -0.153
  C      -50.057      31.313       0.061
  O      -50.357      32.689       0.426
  C      -48.683      30.988       0.665
  O      -47.716      31.390      -0.310
  C      -48.639      31.911       1.871
  O      -47.328      32.130       2.371
  C      -49.305      33.156       1.296
  N      -49.450      37.967       3.044
  C      -48.985      37.446       1.887
  N      -49.016      36.161       1.478
  C      -49.637      35.383       2.383
  C      -50.169      35.775       3.600
  C      -50.047      37.137       3.931
  N      -50.475      37.666       5.127
  N      -50.699      34.691       4.275
  C      -50.479      33.664       3.477
  N      -49.842      34.032       2.319
  O      -52.629      28.475      -1.554
  O      -54.093      30.488      -2.034
  H      -46.739      32.310       1.616
  H      -54.721      29.741      -2.010
  H      -48.522      38.152       1.203
  H      -50.739      32.637       3.695
  H      -48.604      33.739       0.687
  H      -49.232      31.471       2.684
  H      -48.559      29.934       0.928
  H      -50.003      31.287      -1.034
  H      -50.911      29.338       0.255
  H      -50.259      38.633       5.311
  H      -50.804      37.045       5.851
  H      -51.335      30.440       1.574
  P      -46.692      30.345      -0.960
  C      -46.279      30.924      -3.417
  O      -45.871      31.141      -2.078
  O      -47.308      29.068      -1.426
  O      -45.599      30.086       0.186
  H      -45.123      29.257      -0.003
  H      -45.914      29.951      -3.760
  H      -45.856      31.708      -4.050
  H      -47.371      30.951      -3.503
  H      -50.775      30.616      -4.534
  H      -52.420      30.030      -4.487
  H      -51.120      29.033      -3.880

 3  4  5  6  7  8  9  10  11  12  22  25  29  30  31  32 0
 6-311+G(2d,p)
 ****
 33  36  37 0
 6-311+G(2d,p)
 ****
 1  2  13  14  15  16  17  18  19  20  21  23  24  26 0
 3-21G
 ****
 27  28  34  35  38  39  40  41  42  43  44  45  46  47  48 0
 3-21G
 ****


