%nproc=1
%NoSave
%Mem=1900MB
#P OB98/GEN NMR

erre ene a

0 1
  C     -322.414    -422.889     108.861
  O     -322.718    -422.305     107.609
  H     -321.373    -423.220     108.849
  H     -323.053    -423.752     109.056
  H     -322.536    -422.152     109.660
  P     -324.256    -421.971     107.283
  C     -323.867    -419.599     108.229
  O     -324.661    -420.781     108.289
  C     -324.663    -418.382     108.710
  O     -325.753    -418.113     107.804
  C     -325.313    -418.568     110.070
  O     -324.400    -418.625     111.146
  C     -326.405    -417.506     110.059
  O     -325.951    -416.229     110.485
  C     -326.785    -417.454     108.559
  N     -328.099    -418.034     108.313
  C     -329.126    -417.587     109.136
  O     -328.965    -416.777     110.053
  N     -330.356    -418.145     108.911
  C     -330.638    -419.112     107.985
  O     -331.758    -419.602     107.869
  C     -329.506    -419.565     107.163
  C     -328.305    -419.009     107.353
  O     -325.195    -423.141     107.319
  O     -324.197    -421.239     105.865
  H     -325.314    -415.913     109.819
  H     -325.084    -421.220     105.433
  H     -331.114    -417.830     109.491
  H     -329.695    -420.334     106.428
  H     -327.456    -419.323     106.758
  H     -326.809    -416.412     108.214
  H     -327.234    -417.787     110.710
  H     -325.831    -419.538     110.065
  H     -323.993    -417.509     108.706
  H     -323.568    -419.447     107.186
  H     -322.963    -419.728     108.836
  P     -324.776    -419.195     112.585
  C     -323.583    -421.412     111.939
  O     -324.736    -420.804     112.517
  O     -325.926    -418.541     113.292
  O     -323.446    -418.862     113.425
  H     -323.716    -418.649     114.341
  H     -323.693    -422.476     111.960
  H     -322.714    -421.132     112.497
  H     -323.477    -421.084     110.926

 6  7  8  9  10  11  12  13  14  15  16  26  31  32  33  34  35 0
 6-311+G(2d,p)
 ****
 36  37 0
 6-311+G(2d,p)
 ****
 1  2  3  4  5  17  18  19  20  21  22  23  24  25 0
 3-21G
 ****
 27  28  29  30  38  39  40  41  42  43  44  45 0
 3-21G
 ****


