%nproc=1
%NoSave
%Mem=1900MB
#P OB98/GEN NMR

erre ene a

0 1
  C      -74.504     238.002     210.974
  O      -73.917     237.224     209.950
  H      -74.722     239.010     210.605
  H      -75.442     237.531     211.286
  H      -73.833     238.057     211.840
  P      -72.530     237.769     209.347
  C      -70.873     236.688     211.022
  O      -71.409     236.672     209.704
  C      -70.668     235.259     211.525
  O      -71.968     234.602     211.555
  C      -69.722     234.416     210.652
  O      -68.724     233.777     211.462
  C      -70.621     233.343     210.054
  O      -69.959     232.092     209.892
  C      -71.758     233.264     211.069
  N      -73.798     229.199     208.755
  C      -72.720     229.319     209.562
  N      -72.286     230.413     210.227
  C      -73.114     231.453     210.015
  C      -74.261     231.474     209.238
  C      -74.588     230.284     208.571
  N      -75.656     230.172     207.705
  N      -74.846     232.733     209.257
  C      -74.041     233.465     210.000
  N      -72.972     232.745     210.469
  O      -72.173     239.001     210.310
  O      -72.598     238.187     207.919
  H      -69.760     231.752     210.783
  H      -72.142     239.817     209.775
  H      -72.121     228.420     209.689
  H      -74.153     234.529     210.192
  H      -71.503     232.630     211.929
  H      -70.977     233.683     209.076
  H      -69.227     235.003     209.873
  H      -70.303     235.300     212.558
  H      -71.566     237.208     211.693
  H      -75.748     229.321     207.178
  H      -76.180     231.008     207.475
  H      -69.919     237.229     211.014
  P      -67.188     234.087     211.077
  C      -67.187     236.164     212.640
  O      -66.542     234.945     212.268
  O      -67.324     235.125     209.866
  O      -66.420     232.872     210.673
  H      -66.851     234.785     209.079
  H      -66.647     236.623     213.442
  H      -68.187     235.956     212.957
  H      -67.210     236.826     211.800

 6  7  8  9  10  11  12  13  14  15  25  28  32  33  34  35 0
 6-311+G(2d,p)
 ****
 36  39  40 0
 6-311+G(2d,p)
 ****
 1  2  3  4  5  16  17  18  19  20  21  22  23  24 0
 3-21G
 ****
 26  27  29  30  31  37  38  41  42  43  44  45  46  47  48 0
 3-21G
 ****


