%nproc=1
%NoSave
%Mem=1900MB
#P OB98/GEN NMR

erre ene a

0 1
  C     1302.049    -703.271     765.508
  O     1300.673    -703.610     765.739
  P     1299.828    -704.231     764.503
  C     1299.479    -706.364     765.928
  O     1299.819    -705.839     764.641
  C     1299.199    -707.880     765.852
  O     1297.928    -708.132     765.170
  C     1300.300    -708.608     765.056
  O     1300.484    -709.951     765.578
  C     1299.656    -708.759     763.670
  O     1300.277    -709.819     762.914
  C     1298.197    -708.999     764.043
  N     1294.658    -710.946     760.888
  C     1295.319    -711.473     761.910
  N     1296.230    -710.896     762.734
  C     1296.421    -709.618     762.396
  C     1295.810    -708.915     761.357
  C     1294.887    -709.626     760.588
  N     1294.231    -709.077     759.499
  N     1296.266    -707.615     761.300
  C     1297.173    -707.538     762.268
  N     1297.277    -708.727     762.961
  O     1300.177    -703.733     763.162
  O     1298.313    -703.859     764.896
  H     1301.172    -709.532     762.702
  H     1297.861    -703.559     764.092
  H     1295.106    -712.526     762.124
  H     1297.775    -706.657     762.468
  H     1298.030    -710.031     764.379
  H     1299.778    -707.824     763.124
  H     1301.264    -708.118     765.017
  H     1299.110    -708.275     766.855
  H     1298.584    -705.860     766.297
  H     1293.677    -709.682     758.931
  H     1294.490    -708.184     759.165
  H     1300.281    -706.132     766.647
  P     1301.869    -710.190     766.352
  C     1300.601    -710.247     768.649
  O     1301.637    -709.685     767.833
  O     1303.073    -709.638     765.622
  O     1301.885    -711.798     766.487
  H     1301.078    -712.176     766.845
  H     1300.713    -709.837     769.665
  H     1300.714    -711.321     768.687
  H     1299.639    -709.963     768.244
  H     1302.475    -702.876     766.407
  H     1302.110    -702.537     764.731
  H     1302.588    -704.147     765.214

 3  4  5  6  7  8  9  10  11  12  22  25  29  30  31  32 0
 6-311+G(2d,p)
 ****
 33  36  37 0
 6-311+G(2d,p)
 ****
 1  2  13  14  15  16  17  18  19  20  21  23  24  26 0
 3-21G
 ****
 27  28  34  35  38  39  40  41  42  43  44  45  46  47  48 0
 3-21G
 ****


