%nproc=1
%NoSave
%Mem=1900MB
#P OB98/GEN NMR

erre ene a

0 1
  C     -197.017     -95.166    -127.022
  O     -197.969     -96.111    -127.467
  H     -196.057     -95.672    -126.884
  H     -197.330     -94.741    -126.063
  H     -196.896     -94.369    -127.761
  P     -199.446     -95.559    -127.772
  C     -199.119     -94.981    -130.288
  O     -199.292     -94.493    -128.961
  C     -200.277     -94.512    -131.163
  O     -200.301     -93.065    -131.197
  C     -200.182     -94.953    -132.620
  O     -200.592     -96.298    -132.796
  C     -201.099     -93.945    -133.297
  O     -202.474     -94.340    -133.211
  C     -200.866     -92.673    -132.470
  N     -200.377     -89.637    -136.537
  C     -201.403     -90.402    -136.098
  N     -201.458     -91.171    -134.987
  C     -200.309     -91.089    -134.299
  C     -199.176     -90.361    -134.627
  C     -199.238     -89.600    -135.808
  N     -198.184     -88.852    -136.273
  N     -198.179     -90.569    -133.694
  C     -198.697     -91.402    -132.815
  N     -199.983     -91.739    -133.139
  O     -199.759     -94.653    -126.487
  O     -200.487     -96.608    -127.985
  H     -203.004     -93.558    -133.462
  H     -200.254     -95.178    -125.830
  H     -202.293     -90.400    -136.721
  H     -198.188     -91.794    -131.943
  H     -201.802     -92.142    -132.255
  H     -200.858     -93.836    -134.357
  H     -199.158     -94.810    -132.992
  H     -201.219     -94.858    -130.714
  H     -199.101     -96.077    -130.268
  H     -198.167     -94.611    -130.677
  H     -198.291     -88.348    -137.140
  H     -197.291     -88.901    -135.792
  P     -200.391     -96.978    -134.231
  C     -197.810     -97.147    -133.960
  O     -198.900     -96.649    -134.723
  O     -201.316     -96.089    -135.190
  O     -200.756     -98.426    -134.288
  H     -202.161     -96.538    -135.360
  H     -196.889     -96.845    -134.414
  H     -197.857     -98.215    -133.926
  H     -197.862     -96.756    -132.966

 6  7  8  9  10  11  12  13  14  15  25  28  32  33  34  35 0
 6-311+G(2d,p)
 ****
 36  37  40 0
 6-311+G(2d,p)
 ****
 1  2  3  4  5  16  17  18  19  20  21  22  23  24 0
 3-21G
 ****
 26  27  29  30  31  38  39 41  42  43  44  45  46  47  48 0
 3-21G
 ****


