%nproc=1
%NoSave
%Mem=1900MB
#P OB98/GEN NMR

erre ene a

0 1
  C     -241.736       2.176    1252.721
  O     -240.893       2.934    1253.552
  P     -239.873       3.958    1252.836
  C     -240.818       6.110    1253.981
  O     -240.616       5.383    1252.771
  C     -239.803       7.231    1254.091
  O     -239.719       7.990    1252.868
  C     -240.091       8.251    1255.200
  O     -239.793       7.719    1256.470
  C     -239.195       9.395    1254.745
  O     -237.837       9.144    1255.136
  C     -239.337       9.340    1253.227
  N     -240.077      13.828    1250.866
  C     -238.960      13.209    1251.259
  N     -238.840      12.030    1251.907
  C     -240.045      11.469    1252.115
  C     -241.291      12.015    1251.789
  C     -241.269      13.238    1251.130
  N     -242.422      13.898    1250.712
  N     -242.303      11.176    1252.181
  C     -241.708      10.151    1252.730
  N     -240.339      10.273    1252.719
  O     -239.882       3.463    1251.313
  O     -238.495       3.989    1253.417
  H     -237.658       8.209    1254.953
  H     -239.005       3.585    1250.891
  H     -238.003      13.712    1251.030
  H     -242.190       9.290    1253.174
  H     -238.399       9.550    1252.702
  H     -239.495      10.365    1255.191
  H     -241.154       8.555    1255.169
  H     -238.808       6.750    1254.280
  H     -240.715       5.430    1254.832
  H     -242.327      14.836    1250.380
  H     -243.313      13.524    1251.026
  H     -241.854       6.513    1253.988
  P     -240.444       8.468    1257.760
  C     -242.549       7.043    1257.397
  O     -242.022       8.344    1257.519
  O     -240.140      10.007    1257.417
  O     -239.941       7.981    1259.085
  H     -240.396      10.228    1256.486
  H     -243.629       7.103    1257.302
  H     -242.302       6.454    1258.286
  H     -242.130       6.536    1256.512
  H     -242.355       1.544    1253.323
  H     -241.143       1.574    1252.065
  H     -242.352       2.833    1252.143

 3  4  5  6  7  8  9  10  11  12  22  25  29  30  31  32 0
 6-311+G(2d,p)
 ****
 33  36  37 0
 6-311+G(2d,p)
 ****
 1  2  13  14  15  16  17  18  19  20  21  23  24  26 0
 3-21G
 ****
 27  28  34  35  38  39  40  41  42  43  44  45  46  47  48 0
 3-21G
 ****


