%nproc=1
%NoSave
%Mem=1900MB
#P OB98/GEN NMR

erre ene a

0 1
  C      527.227    -359.039    -888.280
  O      528.252    -358.243    -888.840
  H      527.639    -359.978    -887.910
  H      526.780    -358.498    -887.440
  H      526.454    -359.233    -889.020
  P      529.069    -358.870    -890.060
  C      527.825    -357.198    -891.610
  O      528.239    -358.541    -891.400
  C      527.565    -356.948    -893.090
  O      528.833    -356.995    -893.790
  C      526.616    -357.966    -893.750
  O      525.498    -357.289    -894.330
  C      527.442    -358.571    -894.880
  O      526.692    -358.774    -896.080
  C      528.569    -357.562    -895.090
  N      530.576    -359.690    -899.260
  C      529.557    -358.806    -899.100
  N      529.140    -358.198    -897.980
  C      529.916    -358.555    -896.930
  C      530.991    -359.424    -896.940
  C      531.310    -360.008    -898.180
  N      532.320    -360.947    -898.330
  N      531.536    -359.539    -895.670
  C      530.759    -358.800    -894.910
  N      529.752    -358.200    -895.620
  O      528.861    -360.449    -889.870
  O      530.514    -358.507    -890.120
  H      526.185    -357.956    -896.230
  H      529.720    -360.910    -889.950
  H      528.991    -358.565    -900.000
  H      530.846    -358.700    -893.830
  H      528.277    -356.746    -895.760
  H      527.831    -359.545    -894.550
  H      526.273    -358.739    -893.060
  H      527.165    -355.934    -893.200
  H      528.616    -356.513    -891.270
  H      532.398    -361.405    -899.220
  H      532.797    -361.271    -897.510
  H      526.926    -357.008    -891.020
  P      524.179    -357.158    -893.400
  C      524.422    -354.562    -893.330
  O      524.311    -355.772    -892.580
  O      524.417    -358.266    -892.280
  O      522.902    -357.373    -894.140
  H      523.569    -358.574    -891.920
  H      524.502    -353.732    -892.659
  H      523.554    -354.442    -893.944
  H      525.294    -354.605    -893.949

 6  7  8  9  10  11  12  13  14  15  25  28  32  33  34  35 0
 6-311+G(2d,p)
 ****
 36  39  40 0
 6-311+G(2d,p)
 ****
 1  2  3  4  5  16  17  18  19  20  21  22  23  24 0
 3-21G
 ****
 26  27  29  30  31  37  38  41  42  43  44  45  46  47  48 0
 3-21G
 ****


