%nproc=1
%NoSave
%Mem=1900MB
#P OB98/GEN NMR

erre ene a

0 1
  C     -360.456     125.657    -293.373
  O     -360.312     126.986    -292.912
  H     -360.030     124.978    -292.629
  H     -359.918     125.530    -294.316
  H     -361.514     125.416    -293.512
  P     -361.024     128.134    -293.770
  C     -360.861     128.971    -296.252
  O     -360.437     128.041    -295.262
  C     -359.673     129.387    -297.121
  O     -359.091     128.247    -297.787
  C     -360.041     130.323    -298.261
  O     -360.366     131.622    -297.815
  C     -358.771     130.252    -299.093
  O     -357.741     131.081    -298.536
  C     -358.399     128.753    -298.956
  N     -358.727     127.990    -300.152
  C     -357.636     127.468    -300.861
  O     -356.489     127.656    -300.460
  N     -357.879     126.771    -302.020
  C     -359.096     126.590    -302.425
  N     -359.267     125.903    -303.581
  C     -360.273     127.100    -301.692
  C     -360.018     127.789    -300.585
  O     -360.343     129.466    -293.205
  O     -362.516     128.135    -293.724
  H     -358.061     132.003    -298.601
  H     -359.370     129.447    -293.227
  H     -361.274     126.916    -302.063
  H     -360.825     128.200    -299.988
  H     -357.321     128.640    -298.766
  H     -358.931     130.591    -300.114
  H     -360.855     129.892    -298.856
  H     -358.911     129.830    -296.465
  H     -358.436     125.584    -304.066
  H     -361.328     129.848    -295.794
  H     -360.166     125.729    -304.010
  H     -361.622     128.478    -296.867
  P     -361.124     132.647    -298.788
  C     -360.586     133.827    -301.014
  O     -360.095     132.980    -299.975
  O     -361.704     133.848    -298.119
  O     -362.206     131.725    -299.526
  H     -361.832     130.988    -300.039
  H     -359.818     133.978    -301.744
  H     -360.874     134.770    -300.599
  H     -361.434     133.368    -301.478

 6  7  8  9  10  11  12  13  14  15  16  26  30  31  32  33  35 0
 6-311+G(2d,p)
 ****
 37  38 0
 6-311+G(2d,p)
 ****
 1  2  3  4  5  17  18  19  20  21  22  23  24  25 0
 3-21G
 ****
 27  28  29  34  36  39  40  41  42  43  44  45  46 0
 3-21G
 ****


