%nproc=1
%NoSave
%Mem=1900MB
#P OB98/GEN NMR

erre ene a

0 1
  C     -146.788    -203.463     -13.022
  O     -147.806    -204.052     -13.804
  H     -147.107    -203.462     -11.977
  H     -146.620    -202.431     -13.340
  H     -145.863    -204.037     -13.108
  P     -147.534    -204.181     -15.383
  C     -148.656    -201.914     -15.998
  O     -147.451    -202.663     -15.914
  C     -148.400    -200.569     -16.686
  O     -149.650    -199.847     -16.794
  C     -147.413    -199.680     -15.925
  O     -146.511    -199.076     -16.856
  C     -148.286    -198.633     -15.261
  O     -147.583    -197.417     -15.017
  C     -149.461    -198.530     -16.245
  N     -150.676    -198.049     -15.590
  C     -150.766    -196.670     -15.360
  O     -149.841    -195.924     -15.692
  N     -151.870    -196.178     -14.715
  C     -152.776    -196.990     -14.277
  N     -153.836    -196.442     -13.623
  C     -152.700    -198.455     -14.452
  C     -151.638    -198.909     -15.116
  O     -148.936    -204.702     -15.946
  O     -146.372    -205.035     -15.761
  H     -148.160    -196.839     -14.468
  H     -148.854    -205.029     -16.874
  H     -153.476    -199.095     -14.055
  H     -151.498    -199.971     -15.289
  H     -149.216    -197.848     -17.071
  H     -148.642    -199.015     -14.297
  H     -146.833    -200.226     -15.182
  H     -148.058    -200.760     -17.709
  H     -153.850    -195.435     -13.512
  H     -149.042    -201.746     -14.987
  H     -154.585    -196.983     -13.215
  H     -149.394    -202.484     -16.574
  P     -145.045    -199.722     -16.939
  C     -143.975    -198.513     -14.910
  O     -144.440    -199.742     -15.451
  O     -144.182    -198.603     -17.690
  O     -145.010    -201.038     -17.644
  H     -144.084    -198.826     -18.634
  H     -143.603    -198.677     -13.920
  H     -144.781    -197.811     -14.876
  H     -143.191    -198.126     -15.527

 6  7  8  9  10  11  12  13  14  15  16  26  30  31  32  33  35 0
 6-311+G(2d,p)
 ****
 37  38 0
 6-311+G(2d,p)
 ****
 1  2  3  4  5  17  18  19  20  21  22  23  24  25 0
 3-21G
 ****
 27  28  29  34  36  39  40  41  42  43  44  45  46 0
 3-21G
 ****


