%nproc=1
%NoSave
%Mem=1900MB
#P OB98/GEN NMR

erre ene a

0 1
  C       31.535     128.628     -56.872
  O       30.673     127.965     -55.964
  P       29.115     128.356     -56.021
  C       28.983     129.595     -53.726
  O       28.953     129.684     -55.142
  C       28.851     130.994     -53.120
  O       29.883     131.861     -53.631
  C       27.527     131.684     -53.422
  O       26.519     131.232     -52.536
  C       27.900     133.150     -53.235
  O       27.890     133.509     -51.840
  C       29.325     133.192     -53.805
  N       29.992     137.066     -56.982
  C       29.812     137.061     -55.611
  N       29.863     138.263     -54.995
  N       29.606     135.979     -54.909
  C       29.567     134.854     -55.659
  C       29.715     134.731     -57.021
  C       29.995     135.929     -57.778
  O       30.258     135.975     -58.976
  N       29.590     133.428     -57.425
  C       29.399     132.762     -56.305
  N       29.397     133.576     -55.202
  O       28.424     127.216     -55.140
  O       28.534     128.453     -57.396
  H       28.281     134.395     -51.734
  H       28.048     126.518     -55.710
  H       30.164     137.929     -57.466
  H       29.278     131.692     -56.236
  H       29.969     133.885     -53.251
  H       27.196     133.821     -53.735
  H       29.994     139.139     -55.474
  H       27.233     131.508     -54.464
  H       29.729     138.279     -53.991
  H       28.998     130.904     -52.037
  H       29.933     129.155     -53.413
  H       28.165     128.950     -53.390
  P       24.994     131.523     -52.940
  C       25.080     133.851     -51.796
  O       24.808     133.112     -52.971
  O       24.176     131.064     -51.643
  O       24.529     130.800     -54.159
  H       23.328     130.666     -51.915
  H       25.420     134.850     -52.081
  H       25.852     133.374     -51.186
  H       24.163     133.942     -51.209
  H       32.537     128.280     -56.732
  H       31.496     129.683     -56.695
  H       31.223     128.423     -57.875

 3  4  5  6  7  8  9  10  11  12  23  26  30  31 0
 6-311+G(2d,p)
 ****
 33  35  36  37  38 0
 6-311+G(2d,p)
 ****
 1  2  13  14  15  16  17  18  19  20  21  22  24  25 0
 3-21G
 ****
 27  28  29  32  34  39  40  41  42  43  44  45  46  47  48  49 0
 3-21G
 ****


