%nproc=1
%NoSave
%Mem=1900MB
#P OB98/GEN NMR

erre ene a

0 1
  C       -6.492     -19.928     -12.659
  O       -7.592     -19.836     -13.544
  H       -6.698     -20.711     -11.925
  H       -6.346     -18.983     -12.130
  H       -5.583     -20.192     -13.206
  P       -7.531     -18.748     -14.717
  C       -7.246     -16.183     -14.743
  O       -7.660     -17.320     -13.999
  C       -7.527     -14.910     -13.952
  O       -8.943     -14.745     -13.750
  C       -6.884     -14.888     -12.566
  O       -5.518     -14.521     -12.658
  C       -7.743     -13.837     -11.882
  O       -7.346     -12.525     -12.322
  C       -9.141     -14.180     -12.425
  N      -13.693     -15.414     -10.569
  C      -13.305     -14.313     -11.307
  N      -14.260     -13.388     -11.546
  N      -12.089     -14.126     -11.750
  C      -11.228     -15.098     -11.373
  C      -11.490     -16.227     -10.630
  C      -12.851     -16.451     -10.193
  O      -13.241     -17.422      -9.552
  N      -10.349     -16.949     -10.393
  C       -9.406     -16.278     -11.024
  N       -9.886     -15.138     -11.623
  O       -8.491     -18.941     -15.852
  O       -6.009     -18.782     -15.203
  H       -6.469     -12.355     -11.933
  H       -5.889     -19.401     -15.945
  H      -14.641     -15.491     -10.241
  H       -8.365     -16.573     -11.081
  H       -9.773     -13.293     -12.536
  H       -7.661     -13.856     -10.796
  H      -15.110     -13.344     -10.998
  H       -7.018     -15.840     -12.042
  H      -13.983     -12.551     -12.041
  H       -7.186     -14.059     -14.554
  H       -7.807     -16.181     -15.684
  H       -6.178     -16.245     -14.972
  P       -4.398     -15.273     -11.786
  C       -3.883     -15.305      -9.255
  O       -4.485     -14.603     -10.333
  O       -3.035     -15.278     -12.389
  O       -4.998     -16.730     -11.532
  H       -4.772     -17.379     -12.243
  H       -4.014     -14.749      -8.350
  H       -2.838     -15.429      -9.449
  H       -4.343     -16.266      -9.154

 6  7  8  9  10  11  12  13  14  15  26  29  33  34 0
 6-311+G(2d,p)
 ****
 36  38  39  40  41 0
 6-311+G(2d,p)
 ****
 1  2  3  4  5  16  17  18  19  20  21  22  23  24  25 0
 3-21G
 ****
 27  28  30  31  32  35  37  42  43  44  45  46  47 0
 3-21G
 ****
 48  49 0
 3-21G
 ****


