%nproc=1
%NoSave
%Mem=1900MB
#P OB98/GEN NMR

erre ene a

0 1
  C      107.281    -581.780    -437.847
  O      106.120    -582.317    -438.447
  H      107.871    -581.267    -438.615
  H      107.899    -582.572    -437.417
  H      107.008    -581.060    -437.075
  P      105.169    -583.255    -437.568
  C      103.677    -581.296    -436.771
  O      103.753    -582.506    -437.516
  C      102.225    -580.878    -436.599
  O      101.673    -580.427    -437.860
  C      101.314    -582.011    -436.131
  O      101.502    -582.266    -434.759
  C       99.951    -581.475    -436.519
  O       99.475    -580.522    -435.568
  C      100.274    -580.786    -437.878
  N       99.945    -581.637    -439.026
  C       98.627    -581.617    -439.445
  O       97.789    -580.910    -438.878
  N       98.267    -582.415    -440.510
  C       99.152    -583.145    -441.104
  N       98.734    -583.923    -442.142
  C      100.575    -583.191    -440.695
  C      100.899    -582.414    -439.651
  O      105.701    -583.679    -436.229
  O      104.883    -584.512    -438.524
  H       98.515    -580.455    -435.726
  H      105.564    -585.197    -438.391
  H      101.280    -583.811    -441.215
  H      101.923    -582.379    -439.282
  H       99.708    -579.847    -437.970
  H       99.222    -582.276    -436.597
  H      101.514    -582.917    -436.722
  H      102.182    -580.032    -435.893
  H       97.756    -583.867    -442.381
  H      104.228    -580.535    -437.338
  H       99.359    -584.453    -442.725
  H      104.153    -581.409    -435.789
  P      100.859    -583.575    -434.071
  C      103.164    -584.674    -433.661
  O      101.979    -584.122    -433.064
  O      100.289    -584.564    -435.022
  O       99.762    -582.943    -433.060
  H       98.963    -582.614    -433.572
  H      103.831    -585.003    -432.892
  H      103.646    -583.926    -434.255
  H      102.897    -585.505    -434.281

 6  7  8  9  10  11  12  13  14  15  16  26  30  31  32  33  35 0
 6-311+G(2d,p)
 ****
 37  38 0
 6-311+G(2d,p)
 ****
 1  2  3  4  5  17  18  19  20  21  22  23  24  25 0
 3-21G
 ****
 27  28  29  34  36  39  40  41  42  43  44  45  46 0
 3-21G
 ****


