%nproc=1
%NoSave
%Mem=1900MB
#P OB98/GEN NMR

erre ene a

0 1
  C      577.118     147.199      36.888
  O      578.357     146.835      37.466
  H      576.600     147.877      37.573
  H      576.489     146.319      36.719
  H      577.287     147.722      35.940
  P      579.183     145.634      36.789
  C      577.599     143.809      37.692
  O      578.107     144.465      36.533
  C      577.761     142.292      37.585
  O      577.361     141.646      38.815
  C      576.895     141.647      36.510
  O      577.239     141.999      35.189
  C      576.916     140.189      36.926
  O      578.082     139.502      36.471
  C      576.940     140.308      38.470
  N      575.650     139.985      39.069
  C      575.401     138.628      39.288
  O      576.186     137.734      38.978
  N      574.191     138.324      39.844
  C      573.204     139.218      40.159
  O      572.133     138.881      40.641
  C      573.509     140.634      39.875
  C      574.700     140.941      39.356
  O      580.403     145.180      37.536
  O      579.494     146.169      35.312
  H      578.054     139.511      35.498
  H      580.201     145.628      34.880
  H      573.998     137.351      40.022
  H      572.754     141.364      40.100
  H      574.950     141.980      39.138
  H      577.689     139.627      38.892
  H      576.053     139.639      36.542
  H      575.865     141.998      36.651
  H      578.821     142.073      37.423
  H      576.539     144.056      37.780
  H      578.122     144.184      38.578
  P      576.248     142.744      34.183
  C      576.392     140.821      32.407
  O      575.568     141.641      33.231
  O      576.759     144.000      33.551
  O      575.031     143.145      35.158
  H      574.677     143.998      34.838
  H      575.778     140.149      31.845
  H      577.065     140.260      33.021
  H      576.952     141.438      31.736

 6  7  8  9  10  11  12  13  14  15  16  26  31  32  33  34  35 0
 6-311+G(2d,p)
 ****
 36  37 0
 6-311+G(2d,p)
 ****
 1  2  3  4  5  17  18  19  20  21  22  23  24  25 0
 3-21G
 ****
 27  28  29  30  38  39  40  41  42  43  44  45 0
 3-21G
 ****


