%nproc=1
%NoSave
%Mem=1900MB
#P OB98/GEN NMR

erre ene a

0 1
  C      -54.675    -152.463    -265.362
  O      -54.154    -153.114    -264.222
  H      -55.041    -151.474    -265.065
  H      -55.512    -153.040    -265.766
  H      -53.909    -152.337    -266.130
  P      -53.265    -154.431    -264.420
  C      -51.040    -155.141    -263.323
  O      -52.323    -154.566    -263.131
  C      -50.325    -155.351    -261.982
  O      -50.173    -154.064    -261.325
  C      -51.147    -156.237    -261.037
  O      -50.328    -156.953    -260.117
  C      -51.988    -155.220    -260.269
  O      -52.445    -155.711    -259.015
  C      -51.011    -154.048    -260.161
  N      -51.665    -149.830    -257.367
  C      -51.041    -151.014    -257.026
  N      -50.518    -151.083    -255.779
  N      -50.953    -152.044    -257.827
  C      -51.583    -151.862    -259.011
  C      -52.257    -150.747    -259.454
  C      -52.316    -149.595    -258.576
  O      -52.877    -148.536    -258.818
  N      -52.770    -150.940    -260.716
  C      -52.418    -152.163    -261.033
  N      -51.675    -152.763    -260.042
  O      -52.224    -154.014    -265.568
  O      -54.023    -155.671    -264.790
  H      -52.999    -156.494    -259.187
  H      -51.878    -154.809    -266.014
  H      -51.680    -149.054    -256.724
  H      -52.658    -152.663    -261.960
  H      -50.362    -154.173    -259.277
  H      -52.872    -154.983    -260.870
  H      -50.735    -150.389    -255.074
  H      -51.788    -156.942    -261.570
  H      -50.339    -152.021    -255.410
  H      -49.314    -155.745    -262.150
  H      -50.472    -154.457    -263.962
  H      -51.124    -156.085    -263.864
  P      -50.136    -158.530    -260.326
  C      -49.221    -160.546    -258.880
  O      -49.395    -159.161    -259.059
  O      -49.056    -158.631    -261.497
  O      -51.404    -159.265    -260.664
  H      -49.447    -159.046    -262.287
  H      -48.700    -160.724    -257.963
  H      -48.654    -160.943    -259.696
  H      -50.178    -161.024    -258.845

 6  7  8  9  10  11  12  13  14  15  26  29  33  34 0
 6-311+G(2d,p)
 ****
 36  38  39  40  41 0
 6-311+G(2d,p)
 ****
 1  2  3  4  5  16  17  18  19  20  21  22  23  24  25 0
 3-21G
 ****
 27  28  30  31  32  35  37  42  43  44  45  46  47 0
 3-21G
 ****
 48  49 0
 3-21G
 ****


