%nproc=1
%NoSave
%Mem=1900MB
#P OB98/GEN NMR

erre ene a

0 1
  C        0.263    -158.742    -609.516
  O       -0.424    -159.929    -609.855
  H        1.149    -158.632    -610.144
  H       -0.400    -157.891    -609.688
  H        0.553    -158.754    -608.461
  P        0.311    -161.315    -609.512
  C        2.004    -162.831    -610.780
  O        1.101    -161.732    -610.847
  C        2.824    -162.926    -612.062
  O        1.917    -163.097    -613.185
  C        3.676    -161.682    -612.336
  O        4.932    -162.099    -612.887
  C        2.878    -160.931    -613.384
  O        3.698    -160.080    -614.184
  C        2.229    -162.078    -614.153
  N        0.446    -159.769    -618.348
  C        1.692    -160.140    -617.978
  N        2.083    -160.761    -616.847
  C        1.019    -161.034    -616.066
  C       -0.305    -160.714    -616.306
  C       -0.583    -160.038    -617.506
  N       -1.844    -159.621    -617.870
  N       -1.099    -161.132    -615.251
  C       -0.264    -161.686    -614.397
  N        1.023    -161.652    -614.846
  O       -0.917    -162.347    -609.462
  O        1.109    -161.331    -608.251
  H        3.117    -159.570    -614.779
  H       -1.369    -162.272    -608.603
  H        2.478    -159.909    -618.691
  H       -0.544    -162.122    -613.444
  H        2.897    -162.514    -614.912
  H        2.116    -160.311    -612.894
  H        3.853    -161.083    -611.441
  H        3.441    -163.830    -612.016
  H        1.426    -163.756    -610.635
  H       -1.942    -159.093    -618.720
  H       -2.611    -159.759    -617.227
  H        2.672    -162.695    -609.918
  P        6.244    -161.343    -612.344
  C        7.616    -159.232    -612.934
  O        6.504    -160.049    -613.262
  O        7.430    -162.343    -612.741
  O        6.213    -161.089    -610.873
  H        8.009    -162.502    -611.967
  H        7.671    -158.413    -613.620
  H        8.514    -159.810    -612.996
  H        7.502    -158.857    -611.939

 6  7  8  9  10  11  12  13  14  15  25  28  32  33  34  35 0
 6-311+G(2d,p)
 ****
 36  39  40 0
 6-311+G(2d,p)
 ****
 1  2  3  4  5  16  17  18  19  20  21  22  23  24 0
 3-21G
 ****
 26  27  29  30  31  37  38  41  42  43  44  45  46  47 0
 3-21G
 ****
 48 0
 3-21G
 ****


