%nproc=1
%NoSave
%Mem=1900MB
#P OB98/GEN NMR

erre ene a

0 1
  C     -170.325     239.231     -16.542
  O     -171.120     240.012     -15.671
  H     -169.577     238.675     -15.972
  H     -170.969     238.520     -17.067
  H     -169.831     239.871     -17.278
  P     -170.356     241.098     -14.771
  C     -168.671     241.025     -12.800
  O     -169.358     240.289     -13.803
  C     -168.250     240.093     -11.665
  O     -169.428     239.768     -10.881
  C     -167.604     238.775     -12.125
  O     -166.294     238.642     -11.563
  C     -168.492     237.689     -11.535
  O     -167.759     236.579     -11.023
  C     -169.253     238.418     -10.431
  N     -171.627     234.867      -7.648
  C     -170.473     235.536      -7.443
  N     -169.948     236.547      -8.167
  C     -170.762     236.872      -9.188
  C     -171.979     236.297      -9.511
  C     -172.404     235.231      -8.697
  N     -173.554     234.512      -8.938
  N     -172.521     236.893     -10.635
  C     -171.624     237.783     -11.010
  N     -170.535     237.792     -10.176
  O     -171.499     241.622     -13.778
  O     -169.726     242.220     -15.530
  H     -167.233     236.911     -10.270
  H     -171.492     242.599     -13.758
  H     -169.886     235.214      -6.586
  H     -171.689     238.408     -11.893
  H     -168.692     238.444      -9.490
  H     -169.172     237.323     -12.316
  H     -167.549     238.688     -13.218
  H     -167.566     240.641     -11.006
  H     -169.332     241.801     -12.396
  H     -173.720     233.691      -8.374
  H     -174.079     234.706      -9.779
  H     -167.798     241.510     -13.250
  P     -165.052     238.907     -12.554
  C     -164.115     237.782     -14.709
  O     -165.031     237.710     -13.625
  O     -163.783     238.594     -11.629
  O     -165.010     240.286     -13.118
  H     -163.009     239.097     -11.943
  H     -164.225     236.916     -15.327
  H     -163.116     237.824     -14.329
  H     -164.315     238.660     -15.287

 6  7  8  9  10  11  12  13  14  15  25  28  32  33  34  35 0
 6-311+G(2d,p)
 ****
 36  39  40 0
 6-311+G(2d,p)
 ****
 1  2  3  4  5  16  17  18  19  20  21  22  23  24 0
 3-21G
 ****
 26  27  29  30  31  37  38  41  42  43  44  45  46  47  48 0
 3-21G
 ****


