%nproc=1
%NoSave
%Mem=1900MB
#P OB98/GEN NMR

erre ene a

0 1
  C       17.534    -141.445    -122.565
  O       17.972    -140.870    -121.349
  H       17.769    -142.513    -122.583
  H       16.452    -141.322    -122.642
  H       18.009    -140.944    -123.414
  P       19.548    -140.922    -121.059
  C       21.614    -139.847    -122.203
  O       20.259    -140.250    -122.331
  C       22.440    -140.414    -123.353
  O       22.546    -141.846    -123.231
  C       21.860    -140.162    -124.740
  O       22.143    -138.850    -125.201
  C       22.603    -141.211    -125.553
  O       23.933    -140.744    -125.849
  C       22.667    -142.391    -124.572
  N       21.453    -146.838    -126.790
  C       22.617    -146.159    -126.708
  N       22.868    -144.990    -126.082
  C       21.759    -144.531    -125.479
  C       20.507    -145.120    -125.455
  C       20.367    -146.329    -126.155
  N       19.151    -146.980    -126.289
  N       19.614    -144.341    -124.745
  C       20.312    -143.293    -124.365
  N       21.614    -143.365    -124.778
  O       19.886    -142.481    -121.211
  O       19.967    -140.392    -119.728
  H       24.381    -141.461    -126.334
  H       19.899    -142.894    -120.328
  H       23.461    -146.612    -127.217
  H       19.919    -142.460    -123.797
  H       23.625    -142.919    -124.621
  H       22.120    -141.438    -126.507
  H       20.787    -140.380    -124.772
  H       23.454    -139.999    -123.275
  H       22.017    -140.216    -121.254
  H       19.074    -147.522    -127.145
  H       18.347    -146.423    -126.027
  H       21.657    -138.754    -122.207
  P       21.246    -138.269    -126.397
  C       18.760    -137.574    -126.569
  O       19.716    -138.407    -125.926
  O       21.398    -139.387    -127.532
  O       21.649    -136.928    -126.903
  H       21.730    -138.979    -128.355
  H       17.789    -137.766    -126.163
  H       18.755    -137.781    -127.619
  H       19.016    -136.548    -126.409

 6  7  8  9  10  11  12  13  14  15  25  28  32  33  34  35 0
 6-311+G(2d,p)
 ****
 36  39  40 0
 6-311+G(2d,p)
 ****
 1  2  3  4  5  16  17  18  19  20  21  22  23  24 0
 3-21G
 ****
 26  27  29  30  31  37  38  41  42  43  44  45  46  47  48 0
 3-21G
 ****


