%nproc=1
%NoSave
%Mem=1900MB
#P OB98/GEN NMR

erre ene a

0 1
  C     -587.744     211.592     273.679
  O     -587.753     211.244     272.293
  P     -586.886     212.138     271.284
  C     -585.409     210.203     270.362
  O     -586.366     211.213     270.083
  C     -585.382     209.152     269.243
  O     -586.643     208.435     269.174
  C     -585.174     209.737     267.853
  O     -583.800     209.982     267.596
  C     -585.687     208.593     266.976
  O     -584.680     207.574     266.860
  C     -586.872     208.071     267.787
  N     -591.109     207.245     265.013
  C     -589.980     206.518     265.182
  N     -588.892     206.801     265.935
  C     -589.049     207.999     266.546
  C     -590.130     208.849     266.460
  C     -591.201     208.436     265.642
  N     -592.336     209.204     265.479
  N     -589.916     209.991     267.210
  C     -588.733     209.809     267.769
  N     -588.164     208.616     267.382
  O     -585.548     212.426     272.116
  O     -587.557     213.408     270.866
  H     -585.088     206.830     266.364
  H     -585.215     213.329     271.906
  H     -589.969     205.568     264.657
  H     -588.246     210.494     268.440
  H     -586.963     206.971     267.745
  H     -585.933     208.918     265.964
  H     -585.800     210.628     267.700
  H     -584.585     208.436     269.475
  H     -585.631     209.719     271.333
  H     -593.078     208.827     264.895
  H     -592.428     210.086     265.964
  H     -584.422     210.673     270.471
  P     -583.450     211.053     266.466
  C     -582.639     212.845     268.187
  O     -582.304     211.989     267.098
  O     -584.746     211.993     266.454
  O     -583.152     210.477     265.123
  H     -584.881     212.356     265.544
  H     -581.711     213.161     268.674
  H     -583.253     212.308     268.919
  H     -583.172     213.731     267.827
  H     -588.364     210.910     274.222
  H     -588.118     212.587     273.799
  H     -586.743     211.540     274.053

 3  4  5  6  7  8  9  10  11  12  22  25  29  30  31  32 0
 6-311+G(2d,p)
 ****
 33  36  37 0
 6-311+G(2d,p)
 ****
 1  2  13  14  15  16  17  18  19  20  21  23  24  26 0
 3-21G
 ****
 27  28  34  35  38  39  40  41  42  43  44  45  46  47  48 0
 3-21G
 ****


