%nproc=1
%NoSave
%Mem=1900MB
#P OB98/GEN NMR

erre ene a

0 1
  C     -162.088    -294.497      21.717
  O     -162.721    -293.367      21.148
  H     -161.311    -294.156      22.404
  H     -161.623    -295.092      20.926
  H     -162.807    -295.106      22.272
  P     -164.101    -293.623      20.370
  C     -165.170    -291.387      21.140
  O     -164.718    -292.177      20.049
  C     -165.117    -289.906      20.777
  O     -163.756    -289.492      20.545
  C     -165.902    -289.538      19.519
  O     -167.283    -289.346      19.800
  C     -165.236    -288.225      19.147
  O     -165.720    -287.172      20.005
  C     -163.759    -288.516      19.463
  N     -160.709    -287.373      15.574
  C     -161.351    -286.541      16.470
  N     -161.159    -285.214      16.301
  N     -162.115    -286.967      17.441
  C     -162.237    -288.317      17.475
  C     -161.654    -289.245      16.638
  C     -160.800    -288.757      15.581
  O     -160.199    -289.456      14.766
  N     -162.008    -290.522      16.982
  C     -162.821    -290.367      18.008
  N     -162.994    -289.045      18.345
  O     -165.055    -294.198      21.523
  O     -164.014    -294.566      19.216
  H     -165.112    -286.417      19.907
  H     -165.123    -295.167      21.420
  H     -160.138    -286.993      14.836
  H     -163.301    -291.173      18.546
  H     -163.227    -287.626      19.821
  H     -165.446    -287.920      18.120
  H     -160.599    -284.817      15.561
  H     -165.748    -290.271      18.717
  H     -161.618    -284.584      16.948
  H     -165.487    -289.336      21.640
  H     -164.527    -291.572      22.004
  H     -166.198    -291.676      21.386
  P     -168.357    -290.095      18.872
  C     -170.489    -290.175      20.344
  O     -169.804    -289.529      19.281
  O     -168.356    -291.584      19.462
  O     -168.052    -290.088      17.413
  H     -167.962    -292.199      18.813
  H     -171.432    -289.695      20.505
  H     -169.901    -290.114      21.236
  H     -170.650    -291.202      20.092

 6  7  8  9  10  11  12  13  14  15  26  29  33  34 0
 6-311+G(2d,p)
 ****
 36  38  39  40  41 0
 6-311+G(2d,p)
 ****
 1  2  3  4  5  16  17  18  19  20  21  22  23  24  25 0
 3-21G
 ****
 27  28  30  31  32  35  37  42  43  44  45  46  47 0
 3-21G
 ****
 48  49 0
 3-21G
 ****


