%nproc=1
%NoSave
%Mem=1900MB
#P OB98/GEN NMR

erre ene a

0 1
  C       -7.480      64.384     102.446
  O       -6.326      65.111     102.824
  H       -7.279      63.870     101.502
  H       -8.324      65.064     102.305
  H       -7.724      63.638     103.207
  P       -6.409      65.922     104.204
  C       -7.852      67.772     103.088
  O       -6.671      67.454     103.814
  C       -8.112      69.275     103.166
  O       -8.531      69.630     104.504
  C       -6.884      70.128     102.884
  O       -6.606      70.236     101.499
  C       -7.292      71.447     103.523
  O       -8.108      72.227     102.641
  C       -8.105      70.992     104.740
  N       -6.332      74.165     108.326
  C       -7.143      74.364     107.261
  N       -7.576      73.464     106.360
  C       -7.118      72.235     106.657
  C       -6.290      71.878     107.706
  C       -5.892      72.908     108.572
  N       -5.047      72.710     109.640
  N       -6.002      70.527     107.657
  C       -6.650      70.077     106.601
  N       -7.340      71.072     105.968
  O       -4.892      65.913     104.718
  O       -7.342      65.352     105.217
  H       -7.592      72.343     101.818
  H       -4.783      65.224     105.399
  H       -7.475      75.388     107.113
  H       -6.644      69.052     106.255
  H       -9.012      71.595     104.882
  H       -6.417      72.042     103.779
  H       -6.019      69.730     103.423
  H       -8.928      69.525     102.475
  H       -8.701      67.236     103.522
  H       -7.724      67.456     102.047
  H       -4.749      73.505     110.178
  H       -4.624      71.800     109.765
  P       -5.095      69.970     101.022
  C       -4.449      72.499     100.992
  O       -4.602      71.289     100.259
  O       -5.248      68.888      99.856
  O       -4.178      69.499     102.101
  H       -4.492      68.270      99.873
  H       -4.116      73.275     100.335
  H       -3.728      72.356     101.770
  H       -5.388      72.776     101.423

 6  7  8  9  10  11  12  13  14  15  25  28  32  33  34  35 0
 6-311+G(2d,p)
 ****
 36  37  40 0
 6-311+G(2d,p)
 ****
 1  2  3  4  5  16  17  18  19  20  21  22  23  24 0
 3-21G
 ****
 26  27  29  30  31  38  39 41  42  43  44  45  46  47  48 0
 3-21G
 ****


