%nproc=1
%NoSave
%Mem=1900MB
#P OB98/GEN NMR

erre ene a

0 1
  C        5.630    -497.597    -148.566
  O        5.792    -498.182    -149.846
  P        5.240    -499.673    -150.074
  C        7.514    -500.734    -149.404
  O        6.116    -500.669    -149.167
  C        8.162    -501.836    -148.561
  O        9.610    -501.761    -148.686
  C        7.830    -501.738    -147.066
  O        7.753    -503.062    -146.509
  C        9.057    -501.068    -146.476
  O        9.190    -501.356    -145.085
  C       10.156    -501.659    -147.354
  N       15.156    -501.721    -148.117
  C       14.203    -502.657    -148.466
  N       14.660    -503.800    -149.022
  N       12.920    -502.485    -148.298
  C       12.609    -501.291    -147.729
  C       13.463    -500.274    -147.354
  C       14.886    -500.489    -147.534
  O       15.781    -499.712    -147.219
  N       12.778    -499.205    -146.840
  C       11.511    -499.585    -146.867
  N       11.360    -500.854    -147.363
  O        5.721    -500.004    -151.568
  O        3.760    -499.813    -149.939
  H        9.288    -502.328    -145.003
  H        4.956    -499.962    -152.176
  H       16.136    -501.903    -148.261
  H       10.673    -498.988    -146.522
  H       10.432    -502.673    -147.031
  H        8.980    -499.982    -146.592
  H       15.641    -504.028    -149.115
  H        6.902    -501.196    -146.843
  H       13.986    -504.525    -149.249
  H        7.857    -502.810    -148.961
  H        7.966    -499.776    -149.148
  H        7.695    -500.922    -150.471
  P        6.381    -503.428    -145.755
  C        7.284    -502.677    -143.435
  O        6.326    -502.495    -144.457
  O        6.667    -504.890    -145.161
  O        5.172    -503.401    -146.636
  H        5.832    -505.379    -145.040
  H        7.886    -501.765    -143.350
  H        7.941    -503.527    -143.625
  H        6.759    -502.844    -142.485
  H        6.044    -496.610    -148.570
  H        6.135    -498.193    -147.835
  H        4.588    -497.545    -148.327

 3  4  5  6  7  8  9  10  11  12  23  26  30  31 0
 6-311+G(2d,p)
 ****
 33  35  36  37  38 0
 6-311+G(2d,p)
 ****
 1  2  13  14  15  16  17  18  19  20  21  22  24  25 0
 3-21G
 ****
 27  28  29  32  34  39  40  41  42  43  44  45  46  47  48  49 0
 3-21G
 ****


