%nproc=1
%NoSave
%Mem=1900MB
#P OB98/GEN NMR

erre ene a

0 1
  C       28.604     200.687     -34.368
  O       28.825     200.412     -35.752
  P       29.384     201.579     -36.698
  C       27.030     202.086     -37.615
  O       28.192     202.616     -36.997
  C       26.519     203.028     -38.715
  O       26.213     204.342     -38.163
  C       27.551     203.240     -39.833
  O       26.893     203.422     -41.095
  C       28.198     204.557     -39.450
  O       28.832     205.175     -40.566
  C       26.994     205.311     -38.893
  N       28.129     210.302     -38.696
  C       27.714     209.514     -39.714
  N       27.410     208.200     -39.686
  C       27.554     207.705     -38.445
  C       27.960     208.387     -37.310
  C       28.264     209.751     -37.469
  N       28.714     210.546     -36.439
  N       27.997     207.546     -36.215
  C       27.667     206.364     -36.696
  N       27.358     206.415     -38.028
  O       30.141     201.130     -37.902
  O       30.326     202.417     -35.707
  H       29.046     206.092     -40.311
  H       31.144     202.666     -36.180
  H       27.621     210.004     -40.680
  H       27.649     205.445     -36.129
  H       26.359     205.713     -39.692
  H       28.955     204.388     -38.675
  H       28.284     202.434     -39.933
  H       25.585     202.627     -39.123
  H       26.250     201.934     -36.865
  H       29.018     211.479     -36.672
  H       28.960     210.114     -35.559
  H       27.258     201.093     -38.017
  P       26.941     202.169     -42.106
  C       29.061     202.913     -43.441
  O       28.476     202.009     -42.529
  O       25.954     202.265     -43.222
  O       26.674     200.941     -41.116
  H       27.235     200.926     -40.322
  H       30.134     202.712     -43.497
  H       28.919     203.945     -43.114
  H       28.627     202.777     -44.437
  H       28.233     199.808     -33.884
  H       27.888     201.476     -34.271
  H       29.525     200.983     -33.912

 3  4  5  6  7  8  9  10  11  12  22  25  29  30  31  32 0
 6-311+G(2d,p)
 ****
 33  36  37 0
 6-311+G(2d,p)
 ****
 1  2  13  14  15  16  17  18  19  20  21  23  24  26 0
 3-21G
 ****
 27  28  34  35  38  39  40  41  42  43  44  45  46  47  48 0
 3-21G
 ****


