%nproc=1
%NoSave
%Mem=1900MB
#P OB98/GEN NMR

erre ene a

0 1
  C      138.233    -322.399      39.280
  O      138.096    -320.994      39.512
  P      137.836    -320.050      38.248
  C      140.185    -318.995      37.858
  O      139.213    -319.912      37.410
  C      141.577    -319.302      37.284
  O      141.568    -319.178      35.833
  C      142.692    -318.376      37.792
  O      143.913    -319.093      37.800
  C      142.753    -317.317      36.702
  O      143.985    -316.586      36.743
  C      142.539    -318.190      35.460
  N      143.985    -315.941      31.167
  C      144.727    -316.606      32.125
  N      146.064    -316.710      31.900
  N      144.228    -317.115      33.223
  C      142.873    -316.955      33.298
  C      142.028    -316.323      32.438
  C      142.600    -315.739      31.247
  O      142.001    -315.128      30.382
  N      140.726    -316.339      32.875
  C      140.794    -317.014      34.020
  N      142.056    -317.420      34.316
  O      137.668    -318.584      38.922
  O      136.623    -320.408      37.451
  H      144.103    -316.182      35.853
  H      136.747    -318.307      38.886
  H      144.434    -315.551      30.365
  H      139.956    -317.199      34.688
  H      143.452    -318.705      35.160
  H      141.931    -316.593      36.821
  H      146.515    -316.382      31.046
  H      142.513    -317.942      38.782
  H      146.622    -317.222      32.572
  H      141.818    -320.354      37.517
  H      140.247    -319.011      38.975
  H      139.867    -317.973      37.610
  P      144.830    -318.941      39.103
  C      146.284    -316.785      38.964
  O      145.037    -317.373      39.340
  O      146.294    -319.432      38.587
  O      144.376    -319.725      40.279
  H      146.823    -319.764      39.340
  H      146.154    -316.233      38.021
  H      147.060    -317.536      38.860
  H      146.565    -316.069      39.760
  H      138.402    -322.899      40.211
  H      139.062    -322.573      38.626
  H      137.338    -322.775      38.830

 3  4  5  6  7  8  9  10  11  12  23  26  30  31 0
 6-311+G(2d,p)
 ****
 33  35  36  37  38 0
 6-311+G(2d,p)
 ****
 1  2  13  14  15  16  17  18  19  20  21  22  24  25 0
 3-21G
 ****
 27  28  29  32  34  39  40  41  42  43  44  45  46  47  48  49 0
 3-21G
 ****


