%nproc=1
%NoSave
%Mem=1900MB
#P OB98/GEN NMR

erre ene a

0 1
  C      334.654     764.846    -585.304
  O      334.284     765.457    -586.522
  H      334.917     765.627    -584.587
  H      335.522     764.197    -585.449
  H      333.818     764.266    -584.898
  P      333.912     764.525    -587.773
  C      331.577     765.614    -587.925
  O      332.310     764.401    -587.796
  C      330.093     765.370    -587.614
  O      330.000     764.995    -586.211
  C      329.230     766.619    -587.835
  O      328.109     766.378    -588.686
  C      328.957     767.117    -586.425
  O      327.764     767.868    -586.281
  C      329.003     765.830    -585.591
  N      329.326     766.051    -584.183
  C      328.459     766.856    -583.447
  O      327.431     767.377    -583.879
  N      328.801     767.055    -582.135
  C      329.899     766.547    -581.506
  O      330.154     766.752    -580.325
  C      330.790     765.725    -582.338
  C      330.465     765.518    -583.622
  O      334.641     763.227    -587.847
  O      334.221     765.444    -589.046
  H      327.687     768.123    -585.342
  H      335.067     765.173    -589.445
  H      328.174     767.625    -581.585
  H      331.679     765.315    -581.880
  H      331.100     764.914    -584.267
  H      328.041     765.314    -585.636
  H      329.789     767.772    -586.123
  H      329.796     767.393    -588.382
  H      329.742     764.521    -588.208
  H      331.693     765.967    -588.953
  H      331.981     766.365    -587.239
  P      328.189     766.227    -590.270
  C      327.429     763.717    -590.156
  O      328.379     764.677    -590.613
  O      329.089     767.190    -590.975
  O      326.675     766.540    -590.745
  H      326.745     766.966    -591.624
  H      327.723     762.741    -590.481
  H      326.465     763.951    -590.556
  H      327.386     763.739    -589.087

 6  7  8  9  10  11  12  13  14  15  16  26  31  32  33  34  35 0
 6-311+G(2d,p)
 ****
 36  37 0
 6-311+G(2d,p)
 ****
 1  2  3  4  5  17  18  19  20  21  22  23  24  25 0
 3-21G
 ****
 27  28  29  30  38  39  40  41  42  43  44  45 0
 3-21G
 ****


