%nproc=1
%NoSave
%Mem=1900MB
#P OB98/GEN NMR

erre ene a

0 1
  C     -202.856    -281.821     701.819
  O     -204.096    -281.159     701.709
  P     -204.385    -280.160     700.489
  C     -206.639    -280.729     699.386
  O     -205.235    -280.989     699.406
  C     -207.347    -281.785     698.545
  O     -207.154    -283.114     699.095
  C     -208.865    -281.623     698.496
  O     -209.379    -280.483     697.844
  C     -209.287    -282.981     697.959
  O     -209.151    -283.042     696.535
  C     -208.272    -283.923     698.646
  N     -208.874    -284.675     699.748
  C     -209.748    -285.693     699.379
  O     -210.019    -285.967     698.212
  N     -210.336    -286.376     700.410
  C     -210.181    -286.122     701.734
  O     -210.776    -286.734     702.608
  C     -209.257    -285.015     702.068
  C     -208.657    -284.351     701.070
  O     -203.177    -279.474     699.935
  O     -205.480    -279.152     701.088
  H     -209.330    -283.964     696.262
  H     -206.303    -279.581     701.375
  H     -210.988    -287.107     700.165
  H     -209.104    -284.790     703.115
  H     -207.969    -283.535     701.289
  H     -207.868    -284.643     697.920
  H     -210.337    -283.197     698.187
  H     -209.234    -281.564     699.530
  H     -206.916    -281.784     697.542
  H     -206.811    -279.743     698.943
  H     -207.025    -280.706     700.414
  P     -210.086    -279.267     698.610
  C     -209.504    -277.397     696.911
  O     -209.330    -277.909     698.215
  O     -210.404    -279.484     700.053
  O     -211.464    -279.131     697.791
  H     -212.163    -278.813     698.393
  H     -208.889    -276.495     696.806
  H     -210.549    -277.124     696.743
  H     -209.185    -278.129     696.162
  H     -202.858    -282.438     702.693
  H     -202.071    -281.098     701.895
  H     -202.698    -282.429     700.953

 3  4  5  6  7  8  9  10  11  12  13  23  28  29  30  31  32 0
 6-311+G(2d,p)
 ****
 33  34 0
 6-311+G(2d,p)
 ****
 1  2  14  15  16  17  18  19  20  21  22  24  25  26  27 0
 3-21G
 ****
 35  36  37  38  39  40  41  42  43  44  45 0
 3-21G
 ****


