%nproc=1
%NoSave
%Mem=1900MB
#P OB98/GEN NMR

erre ene a

0 1
  C     -145.362     104.779      95.945
  O     -146.550     105.320      95.400
  P     -147.791     104.358      95.085
  C     -148.255     102.271      93.660
  O     -147.326     103.307      93.969
  C     -147.561     101.154      92.880
  O     -146.612     100.468      93.720
  C     -148.511     100.076      92.366
  O     -149.220     100.528      91.231
  C     -147.538      98.934      92.098
  O     -146.893      99.107      90.828
  C     -146.525      99.107      93.240
  N     -144.425      95.395      96.044
  C     -144.014      96.018      94.917
  N     -144.652      96.973      94.206
  C     -145.844      97.253      94.756
  C     -146.411      96.676      95.881
  C     -145.638      95.719      96.556
  N     -146.021      95.123      97.739
  N     -147.666      97.211      96.113
  C     -147.852      98.081      95.143
  N     -146.750      98.188      94.337
  O     -149.082     105.056      94.797
  O     -147.918     103.456      96.401
  H     -147.588      99.316      90.173
  H     -148.794     103.597      96.808
  H     -143.041      95.716      94.542
  H     -148.748      98.666      94.992
  H     -145.494      98.958      92.897
  H     -148.030      97.958      92.084
  H     -149.206      99.780      93.163
  H     -147.010     101.613      92.048
  H     -149.060     102.701      93.057
  H     -145.329      94.563      98.212
  H     -146.757      95.562      98.284
  H     -148.679     101.878      94.588
  P     -150.466      99.684      90.682
  C     -150.726      97.215      90.033
  O     -149.870      98.344      90.034
  O     -151.428     100.437      89.822
  O     -151.177      99.149      92.015
  H     -152.137      99.078      91.866
  H     -150.738      96.768      91.032
  H     -150.341      96.486      89.323
  H     -151.741      97.495      89.745
  H     -144.647     105.562      96.089
  H     -144.962     104.049      95.273
  H     -145.579     104.317      96.886

 3  4  5  6  7  8  9  10  11  12  22  25  29  30  31  32 0
 6-311+G(2d,p)
 ****
 33  36  37 0
 6-311+G(2d,p)
 ****
 1  2  13  14  15  16  17  18  19  20  21  23  24  26 0
 3-21G
 ****
 27  28  34  35  38  39  40  41  42  43  44  45  46  47  48 0
 3-21G
 ****


