%nproc=1
%NoSave
%Mem=1900MB
#P OB98/GEN NMR

erre ene a

0 1
  C      -48.087      70.300     564.208
  O      -47.925      70.760     562.880
  H      -48.716      71.010     564.751
  H      -47.116      70.235     564.708
  H      -48.577      69.323     564.209
  P      -46.997      69.870     561.919
  C      -47.054      69.359     559.381
  O      -47.741      69.907     560.497
  C      -47.718      69.791     558.077
  O      -48.893      68.997     557.830
  C      -48.173      71.246     558.055
  O      -47.091      72.100     557.717
  C      -49.216      71.207     556.950
  O      -48.563      71.267     555.667
  C      -49.866      69.826     557.144
  N      -54.972      69.372     556.890
  C      -54.038      69.511     555.926
  N      -52.705      69.680     556.068
  C      -52.359      69.691     557.364
  C      -53.207      69.568     558.457
  C      -54.572      69.394     558.184
  N      -55.526      69.257     559.170
  N      -52.496      69.631     559.639
  C      -51.237      69.733     559.262
  N      -51.103      69.812     557.900
  O      -46.637      68.519     562.438
  O      -45.760      70.860     561.688
  H      -47.908      70.542     555.648
  H      -46.072      71.775     561.566
  H      -54.409      69.481     554.906
  H      -50.386      69.734     559.935
  H      -50.084      69.341     556.181
  H      -49.909      72.050     556.993
  H      -48.656      71.536     558.996
  H      -47.013      69.593     557.258
  H      -47.038      68.264     559.447
  H      -56.490      69.334     558.892
  H      -55.240      69.404     560.125
  H      -46.020      69.720     559.419
  P      -47.269      73.694     557.699
  C      -45.537      75.555     557.307
  O      -45.786      74.278     557.884
  O      -48.293      74.214     558.647
  O      -47.604      74.037     556.173
  H      -47.986      74.934     556.110
  H      -44.522      75.839     557.493
  H      -46.195      76.278     557.742
  H      -45.706      75.509     556.252

 6  7  8  9  10  11  12  13  14  15  25  28  32  33  34  35 0
 6-311+G(2d,p)
 ****
 36  39  40 0
 6-311+G(2d,p)
 ****
 1  2  3  4  5  16  17  18  19  20  21  22  23  24 0
 3-21G
 ****
 26  27  29  30  31  37  38  41  42  43  44  45  46  47 0
 3-21G
 ****
 48 0
 3-21G
 ****


