%nproc=1
%NoSave
%Mem=1900MB
#P OB98/GEN NMR

erre ene a

0 1
  C      -28.957      -5.796     -53.652
  O      -29.200      -6.264     -52.336
  P      -30.488      -5.690     -51.567
  C      -31.097      -3.449     -50.404
  O      -30.075      -4.262     -50.961
  C      -30.672      -1.980     -50.376
  O      -30.284      -1.578     -51.720
  C      -31.765      -1.008     -49.904
  O      -31.103       0.040     -49.186
  C      -32.329      -0.501     -51.220
  O      -33.089       0.689     -51.103
  C      -31.048      -0.394     -52.043
  N      -30.654       2.553     -56.200
  C      -30.246       2.737     -54.924
  N      -30.378       1.903     -53.871
  C      -30.998       0.769     -54.241
  C      -31.486       0.448     -55.496
  C      -31.292       1.401     -56.509
  N      -31.718       1.214     -57.809
  N      -32.087      -0.793     -55.487
  C      -31.967      -1.215     -54.245
  N      -31.297      -0.315     -53.462
  O      -30.581      -6.624     -50.273
  O      -31.756      -5.704     -52.362
  H      -33.682       0.631     -50.328
  H      -31.509      -6.832     -50.054
  H      -29.746       3.680     -54.721
  H      -32.353      -2.149     -53.862
  H      -30.449       0.479     -51.757
  H      -32.994      -1.266     -51.639
  H      -32.508      -1.475     -49.252
  H      -29.783      -1.889     -49.739
  H      -31.294      -3.768     -49.375
  H      -31.712       2.030     -58.404
  H      -32.367       0.455     -57.976
  H      -32.020      -3.581     -50.979
  P      -31.793       0.627     -47.861
  C      -33.545       2.499     -47.699
  O      -33.121       1.349     -48.404
  O      -30.846       1.881     -47.557
  O      -31.946      -0.328     -46.728
  H      -30.727       2.441     -48.345
  H      -34.393       2.941     -48.230
  H      -32.735       3.234     -47.650
  H      -33.864       2.223     -46.691
  H      -28.073      -6.260     -54.038
  H      -28.824      -4.734     -53.634
  H      -29.790      -6.041     -54.277

 3  4  5  6  7  8  9  10  11  12  22  25  29  30  31  32 0
 6-311+G(2d,p)
 ****
 33  36  37 0
 6-311+G(2d,p)
 ****
 1  2  13  14  15  16  17  18  19  20  21  23  24  26 0
 3-21G
 ****
 27  28  34  35  38  39  40  41  42  43  44  45  46  47  48 0
 3-21G
 ****


