%nproc=1
%NoSave
%Mem=1900MB
#P OB98/GEN NMR

erre ene a

0 1
  C      280.070     443.889      55.145
  O      279.856     444.272      56.489
  H      280.270     444.784      54.550
  H      279.181     443.392      54.749
  H      280.932     443.220      55.075
  P      279.567     443.092      57.536
  C      277.164     442.763      56.604
  O      277.977     443.044      57.735
  C      275.691     442.813      57.004
  O      275.394     441.721      57.906
  C      275.300     444.078      57.755
  O      275.113     445.184      56.889
  C      274.020     443.626      58.442
  O      272.892     443.725      57.565
  C      274.316     442.156      58.767
  N      272.588     440.697      63.341
  C      272.015     440.696      62.117
  N      272.548     441.092      60.944
  C      273.821     441.492      61.113
  C      274.537     441.543      62.294
  C      273.869     441.119      63.454
  N      274.441     441.142      64.705
  N      275.802     442.051      62.072
  C      275.851     442.293      60.778
  N      274.678     441.968      60.156
  O      280.107     443.697      58.916
  O      280.210     441.788      57.211
  H      272.931     444.616      57.166
  H      280.991     443.335      59.108
  H      270.989     440.341      62.081
  H      276.702     442.705      60.251
  H      273.456     441.506      58.563
  H      273.815     444.235      59.320
  H      276.049     444.307      58.520
  H      275.079     442.688      56.103
  H      277.402     441.765      56.225
  H      277.377     443.502      55.823
  H      273.883     440.887      65.499
  H      275.357     441.561      64.814
  P      276.277     446.289      56.838
  C      275.696     447.110      59.246
  O      275.879     447.444      57.875
  O      276.085     446.978      55.408
  O      277.655     445.748      57.014
  H      276.956     447.218      55.035
  H      275.436     447.990      59.796
  H      276.604     446.700      59.638
  H      274.911     446.388      59.336

 6  7  8  9  10  11  12  13  14  15  25  28  32  33  34  35 0
 6-311+G(2d,p)
 ****
 36  37  40 0
 6-311+G(2d,p)
 ****
 1  2  3  4  5  16  17  18  19  20  21  22  23  24 0
 3-21G
 ****
 26  27  29  30  31  38  39 41  42  43  44  45  46  47  48 0
 3-21G
 ****


