%nproc=1
%NoSave
%Mem=1900MB
#P OB98/GEN NMR

erre ene a

0 1
  C      166.589    -111.713       6.335
  O      167.801    -111.631       5.614
  H      165.830    -112.164       5.690
  H      166.247    -110.718       6.633
  H      166.714    -112.345       7.218
  P      169.049    -110.895       6.306
  C      168.681    -108.997       4.581
  O      169.602    -109.904       5.166
  C      169.407    -107.741       4.105
  O      168.528    -106.894       3.335
  C      169.931    -106.842       5.221
  O      171.082    -107.359       5.869
  C      170.228    -105.580       4.426
  O      171.444    -105.758       3.679
  C      169.002    -105.526       3.481
  N      167.932    -104.666       3.984
  C      168.018    -103.305       3.663
  O      168.956    -102.880       2.990
  N      167.057    -102.449       4.143
  C      166.105    -102.907       4.896
  N      165.206    -102.009       5.385
  C      165.967    -104.334       5.245
  C      166.905    -105.148       4.767
  O      170.075    -111.782       6.935
  O      168.383    -109.863       7.333
  H      171.228    -106.315       2.909
  H      169.117    -109.389       7.796
  H      165.159    -104.662       5.882
  H      166.881    -106.208       4.994
  H      169.295    -105.179       2.484
  H      170.357    -104.695       5.053
  H      169.141    -106.620       5.946
  H      170.214    -108.060       3.433
  H      165.357    -101.035       5.160
  H      167.921    -108.751       5.329
  H      164.619    -102.232       6.183
  H      168.193    -109.460       3.718
  P      170.926    -107.868       7.384
  C      171.857    -105.747       8.575
  O      172.050    -107.112       8.243
  O      171.455    -109.374       7.309
  O      169.549    -107.771       7.961
  H      170.718    -110.001       7.175
  H      172.692    -105.397       9.145
  H      170.962    -105.643       9.153
  H      171.771    -105.170       7.678

 6  7  8  9  10  11  12  13  14  15  16  26  30  31  32  33  35 0
 6-311+G(2d,p)
 ****
 37  38 0
 6-311+G(2d,p)
 ****
 1  2  3  4  5  17  18  19  20  21  22  23  24  25 0
 3-21G
 ****
 27  28  29  34  36  39  40  41  42  43  44  45  46 0
 3-21G
 ****


