%nproc=1
%NoSave
%Mem=1900MB
#P OB98/GEN NMR

erre ene a

0 1
  C       65.780     -65.397      99.899
  O       67.123     -65.520      99.461
  P       68.245     -65.734     100.592
  C       69.758     -63.691     101.158
  O       68.486     -64.312     101.290
  C       69.763     -62.746      99.951
  O       68.745     -61.732     100.118
  C       71.068     -61.989      99.746
  O       72.066     -62.829      99.187
  C       70.588     -60.861      98.829
  O       70.470     -61.344      97.482
  C       69.202     -60.540      99.410
  N       68.377     -55.514      99.910
  C       68.308     -56.333      98.841
  N       68.566     -57.653      98.776
  C       68.912     -58.127      99.990
  C       69.048     -57.407     101.165
  C       68.757     -56.035     101.102
  N       68.829     -55.199     102.198
  N       69.448     -58.231     102.202
  C       69.544     -59.426     101.662
  N       69.223     -59.421     100.331
  O       69.583     -65.958      99.741
  O       67.979     -66.874     101.536
  H       70.289     -60.574      96.916
  H       70.177     -66.595     100.192
  H       68.008     -55.865      97.906
  H       69.844     -60.323     102.194
  H       68.459     -60.316      98.631
  H       71.274     -60.004      98.813
  H       71.423     -61.574     100.699
  H       69.514     -63.335      99.051
  H       70.526     -64.456     101.010
  H       68.745     -54.206     102.034
  H       69.249     -55.566     103.045
  H       69.991     -63.145     102.084
  P       73.593     -62.461      99.501
  C       74.772     -61.700      97.340
  O       73.946     -61.315      98.429
  O       74.366     -63.735      98.916
  O       73.883     -62.127     100.934
  H       74.064     -63.959      98.017
  H       74.891     -60.847      96.664
  H       74.321     -62.534      96.796
  H       75.762     -61.995      97.720
  H       65.140     -65.260      99.053
  H       65.694     -64.554     100.552
  H       65.493     -66.285     100.423

 3  4  5  6  7  8  9  10  11  12  22  25  29  30  31  32 0
 6-311+G(2d,p)
 ****
 33  36  37 0
 6-311+G(2d,p)
 ****
 1  2  13  14  15  16  17  18  19  20  21  23  24  26 0
 3-21G
 ****
 27  28  34  35  38  39  40  41  42  43  44  45  46  47  48 0
 3-21G
 ****


