%nproc=1
%NoSave
%Mem=1900MB
#P OB98/GEN NMR

erre ene a

0 1
  C     -618.238    1077.614    -657.620
  O     -618.553    1077.544    -656.238
  P     -617.332    1077.366    -655.209
  C     -618.422    1079.103    -653.607
  O     -617.911    1077.789    -653.774
  C     -618.673    1079.396    -652.125
  O     -619.902    1078.780    -651.689
  C     -617.605    1078.894    -651.180
  O     -616.489    1079.756    -651.104
  C     -618.349    1078.886    -649.858
  O     -618.413    1080.222    -649.323
  C     -619.775    1078.432    -650.292
  N     -621.787    1074.873    -647.231
  C     -621.675    1076.188    -647.098
  N     -621.102    1077.069    -647.955
  C     -620.602    1076.440    -649.014
  C     -620.623    1075.088    -649.294
  C     -621.257    1074.275    -648.358
  N     -621.408    1072.901    -648.493
  N     -620.001    1074.807    -650.484
  C     -619.636    1075.988    -650.956
  N     -619.977    1077.006    -650.122
  O     -616.374    1078.595    -655.591
  O     -616.627    1076.078    -655.282
  H     -617.563    1080.391    -648.885
  H     -615.458    1078.411    -655.299
  H     -622.074    1076.619    -646.191
  H     -619.124    1076.154    -651.898
  H     -620.566    1078.948    -649.741
  H     -617.898    1078.251    -649.091
  H     -617.300    1077.861    -651.444
  H     -618.799    1080.490    -652.011
  H     -619.366    1079.207    -654.154
  H     -622.028    1072.428    -647.877
  H     -621.204    1072.505    -649.422
  H     -617.692    1079.817    -654.009
  P     -615.079    1079.096    -650.734
  C     -613.602    1080.695    -652.160
  O     -613.991    1080.292    -650.885
  O     -614.774    1078.161    -651.986
  O     -615.086    1078.349    -649.454
  H     -614.180    1077.417    -651.724
  H     -613.137    1081.696    -652.090
  H     -614.474    1080.800    -652.830
  H     -612.884    1079.996    -652.609
  H     -619.139    1077.732    -658.186
  H     -617.744    1076.713    -657.919
  H     -617.594    1078.450    -657.797

 3  4  5  6  7  8  9  10  11  12  22  25  29  30  31  32 0
 6-311+G(2d,p)
 ****
 33  36  37 0
 6-311+G(2d,p)
 ****
 1  2  13  14  15  16  17  18  19  20  21  23  24  26 0
 3-21G
 ****
 27  28  34  35  38  39  40  41  42  43  44  45  46  47  48 0
 3-21G
 ****


