%nproc=1
%NoSave
%Mem=1900MB
#P OB98/GEN NMR

erre ene a

0 1
  C       23.780    -296.746    -180.453
  O       22.841    -295.759    -180.080
  H       23.443    -297.215    -181.380
  H       23.859    -297.516    -179.680
  H       24.760    -296.292    -180.630
  P       23.048    -294.998    -178.680
  C       23.956    -293.028    -180.101
  O       24.175    -293.892    -178.995
  C       23.866    -291.578    -179.624
  O       25.078    -291.172    -178.955
  C       23.676    -290.550    -180.736
  O       22.366    -290.539    -181.280
  C       24.000    -289.276    -179.975
  O       22.887    -288.917    -179.138
  C       25.210    -289.733    -179.122
  N       26.497    -289.404    -179.735
  C       26.801    -288.045    -179.865
  O       26.007    -287.187    -179.475
  N       27.984    -287.685    -180.468
  C       28.783    -288.602    -180.917
  N       29.918    -288.191    -181.551
  C       28.510    -290.047    -180.788
  C       27.365    -290.374    -180.197
  O       23.315    -295.863    -177.492
  O       21.740    -294.088    -178.523
  H       23.182    -288.186    -178.567
  H       21.815    -293.604    -177.665
  H       29.208    -290.769    -181.188
  H       27.084    -291.416    -180.082
  H       25.171    -289.288    -178.120
  H       24.203    -288.420    -180.629
  H       24.424    -290.687    -181.525
  H       23.055    -291.522    -178.884
  H       30.050    -287.190    -181.661
  H       23.029    -293.337    -180.598
  H       30.438    -288.811    -182.162
  H       24.785    -293.107    -180.810
  P       22.191    -290.074    -182.805
  C       23.693    -292.008    -183.697
  O       23.477    -290.610    -183.603
  O       22.422    -288.494    -182.729
  O       20.883    -290.429    -183.446
  H       21.578    -288.016    -182.639
  H       24.586    -292.194    -184.257
  H       22.861    -292.465    -184.190
  H       23.795    -292.420    -182.715

 6  7  8  9  10  11  12  13  14  15  16  26  30  31  32  33  35 0
 6-311+G(2d,p)
 ****
 37  38 0
 6-311+G(2d,p)
 ****
 1  2  3  4  5  17  18  19  20  21  22  23  24  25 0
 3-21G
 ****
 27  28  29  34  36  39  40  41  42  43  44  45  46 0
 3-21G
 ****


