%nproc=1
%NoSave
%Mem=1900MB
#P OB98/GEN NMR

erre ene a

0 1
  C     -945.734    -809.317     -99.593
  O     -944.831    -808.309     -99.193
  P     -943.861    -808.541     -97.943
  C     -941.761    -808.489     -99.451
  O     -942.540    -809.258     -98.544
  C     -940.326    -808.299     -98.889
  O     -939.679    -809.574     -98.777
  C     -939.451    -807.458     -99.779
  O     -939.759    -806.075     -99.639
  C     -938.052    -807.826     -99.249
  O     -937.730    -807.112     -98.074
  C     -938.254    -809.344     -98.938
  N     -937.692    -810.216     -99.969
  C     -936.299    -810.344     -99.965
  O     -935.617    -809.724     -99.139
  N     -935.692    -811.129    -100.917
  C     -936.435    -811.727    -101.806
  N     -935.785    -812.481    -102.730
  C     -937.903    -811.585    -101.877
  C     -938.462    -810.817    -100.934
  O     -944.476    -809.242     -96.777
  O     -943.319    -807.071     -97.601
  H     -938.506    -807.205     -97.480
  H     -944.020    -806.531     -97.151
  H     -938.474    -812.086    -102.652
  H     -939.528    -810.666    -100.912
  H     -937.808    -809.599     -97.976
  H     -937.282    -807.657     -99.986
  H     -939.559    -807.758    -100.822
  H     -940.438    -807.852     -97.896
  H     -934.769    -812.521    -102.678
  H     -942.236    -807.506     -99.574
  H     -936.261    -812.951    -103.483
  H     -941.737    -808.976    -100.429
  P     -939.450    -805.052    -100.817
  C     -941.711    -803.807    -100.790
  O     -940.851    -804.677    -101.510
  O     -938.378    -805.454    -101.758
  O     -939.059    -803.684    -100.075
  H     -938.272    -803.303    -100.492
  H     -942.442    -803.389    -101.459
  H     -941.151    -802.999    -100.318
  H     -942.241    -804.387    -100.008
  H     -946.293    -808.979    -100.441
  H     -946.404    -809.536     -98.788
  H     -945.190    -810.201     -99.854

 3  4  5  6  7  8  9  10  11  12  13  23  27  28  29  30  32 0
 6-311+G(2d,p)
 ****
 34  35 0
 6-311+G(2d,p)
 ****
 1  2  14  15  16  17  18  19  20  21  22  24  25  26 0
 3-21G
 ****
 31  33  36  37  38  39  40  41  42  43  44  45  46 0
 3-21G
 ****


