%nproc=1
%NoSave
%Mem=1900MB
#P OB98/GEN NMR

erre ene a

0 1
  C      652.211     -48.450     445.656
  O      653.517     -48.889     445.976
  P      653.905     -49.229     447.496
  C      654.975     -46.900     447.677
  O      654.102     -47.847     448.286
  C      655.722     -46.098     448.747
  O      654.827     -45.196     449.422
  C      656.342     -46.952     449.850
  O      657.479     -47.661     449.408
  C      656.606     -45.888     450.916
  O      657.812     -45.181     450.638
  C      655.377     -44.962     450.741
  N      654.383     -45.166     451.781
  C      654.506     -44.352     452.915
  O      655.459     -43.586     453.033
  N      653.535     -44.439     453.887
  C      652.603     -45.346     453.796
  N      651.644     -45.345     454.769
  C      652.545     -46.322     452.700
  C      653.442     -46.165     451.723
  O      655.019     -50.210     447.663
  O      652.542     -49.797     448.123
  H      652.730     -50.638     448.578
  H      657.973     -44.584     451.392
  H      651.785     -47.098     452.703
  H      653.447     -46.825     450.857
  H      655.701     -43.918     450.753
  H      656.705     -46.335     451.913
  H      655.588     -47.658     450.221
  H      656.502     -45.506     448.244
  H      651.709     -44.645     455.488
  H      654.388     -46.224     447.047
  H      650.733     -45.772     454.624
  H      655.692     -47.428     447.031
  P      657.883     -48.978     450.225
  C      660.120     -48.076     451.164
  O      658.798     -48.516     451.449
  O      658.898     -49.726     449.242
  O      656.720     -49.861     450.590
  H      658.773     -50.691     449.312
  H      660.479     -47.482     452.014
  H      660.150     -47.454     450.269
  H      660.768     -48.949     451.036
  H      652.142     -48.274     444.603
  H      652.000     -47.543     446.183
  H      651.503     -49.200     445.940

 3  4  5  6  7  8  9  10  11  12  13  24  27  28  29  30  32 0
 6-311+G(2d,p)
 ****
 34  35 0
 6-311+G(2d,p)
 ****
 1  2  14  15  16  17  18  19  20  21  22  23  25  26 0
 3-21G
 ****
 31  33  36  37  38  39  40  41  42  43  44  45  46 0
 3-21G
 ****


