%nproc=1
%NoSave
%Mem=1900MB
#P OB98/GEN NMR

erre ene a

0 1
  C     -178.861    -271.477      17.378
  O     -180.150    -271.330      17.949
  P     -181.134    -272.596      17.879
  C     -181.039    -273.248      20.401
  O     -180.700    -273.589      19.061
  C     -182.099    -274.206      20.935
  O     -181.670    -275.572      20.765
  C     -182.399    -274.055      22.420
  O     -183.197    -272.908      22.669
  C     -183.084    -275.386      22.705
  O     -184.450    -275.340      22.259
  C     -182.275    -276.358      21.828
  N     -179.757    -280.779      22.401
  C     -180.786    -280.423      21.602
  N     -181.416    -279.235      21.520
  C     -180.879    -278.352      22.381
  C     -179.848    -278.576      23.276
  C     -179.274    -279.857      23.267
  N     -178.228    -280.217      24.091
  N     -179.588    -277.445      24.015
  C     -180.438    -276.548      23.567
  N     -181.231    -277.044      22.570
  O     -180.655    -273.359      16.560
  O     -182.590    -272.257      17.834
  H     -184.881    -274.595      22.726
  H     -181.409    -273.781      16.108
  H     -181.150    -281.200      20.930
  H     -180.515    -275.530      23.928
  H     -182.904    -277.121      21.353
  H     -183.094    -275.647      23.769
  H     -181.463    -273.987      22.992
  H     -183.013    -274.059      20.346
  H     -181.438    -272.227      20.428
  H     -177.978    -281.194      24.128
  H     -177.961    -279.578      24.830
  H     -180.132    -273.283      21.014
  P     -182.747    -271.945      23.875
  C     -181.403    -270.269      22.462
  O     -181.341    -271.349      23.381
  O     -182.306    -273.005      24.987
  O     -183.767    -270.945      24.293
  H     -181.713    -273.690      24.627
  H     -180.387    -269.929      22.253
  H     -181.980    -269.445      22.890
  H     -181.865    -270.601      21.525
  H     -178.314    -270.565      17.493
  H     -178.956    -271.707      16.337
  H     -178.340    -272.270      17.872

 3  4  5  6  7  8  9  10  11  12  22  25  29  30  31  32 0
 6-311+G(2d,p)
 ****
 33  36  37 0
 6-311+G(2d,p)
 ****
 1  2  13  14  15  16  17  18  19  20  21  23  24  26 0
 3-21G
 ****
 27  28  34  35  38  39  40  41  42  43  44  45  46  47  48 0
 3-21G
 ****


