%nproc=1
%NoSave
%Mem=1900MB
#P OB98/GEN NMR

erre ene a

0 1
  C      555.674    -427.891     688.496
  O      556.990    -427.534     688.856
  H      555.220    -427.061     687.947
  H      555.079    -428.078     689.393
  H      555.674    -428.777     687.858
  P      557.904    -428.664     689.535
  C      559.265    -429.125     687.371
  O      558.377    -429.648     688.351
  C      559.390    -430.112     686.202
  O      558.088    -430.310     685.604
  C      560.345    -429.625     685.103
  O      561.070    -430.755     684.608
  C      559.410    -429.110     684.021
  O      560.001    -429.140     682.722
  C      558.192    -430.035     684.200
  N      556.980    -429.415     683.669
  C      556.890    -429.295     682.280
  O      557.808    -429.687     681.566
  N      555.788    -428.683     681.735
  C      554.894    -428.158     682.522
  N      553.848    -427.530     681.918
  C      554.988    -428.192     683.991
  C      556.040    -428.840     684.496
  O      556.855    -429.554     690.349
  O      559.012    -428.160     690.396
  H      559.307    -428.888     682.067
  H      557.256    -429.930     691.155
  H      554.233    -427.714     684.602
  H      556.188    -428.917     685.563
  H      558.357    -430.985     683.684
  H      559.139    -428.073     684.241
  H      561.049    -428.862     685.445
  H      559.713    -431.080     686.602
  H      553.826    -427.508     680.903
  H      560.254    -428.984     687.824
  H      553.118    -427.049     682.427
  H      558.893    -428.156     687.015
  P      562.292    -431.289     685.508
  C      561.043    -433.390     686.393
  O      561.679    -432.156     686.706
  O      562.818    -429.961     686.226
  O      563.374    -431.959     684.722
  H      563.678    -429.695     685.859
  H      560.688    -433.847     687.293
  H      561.744    -434.041     685.915
  H      560.218    -433.209     685.736

 6  7  8  9  10  11  12  13  14  15  16  26  30  31  32  33  35 0
 6-311+G(2d,p)
 ****
 37  38 0
 6-311+G(2d,p)
 ****
 1  2  3  4  5  17  18  19  20  21  22  23  24  25 0
 3-21G
 ****
 27  28  29  34  36  39  40  41  42  43  44  45  46 0
 3-21G
 ****


