%nproc=1
%NoSave
%Mem=1900MB
#P OB98/GEN NMR

erre ene a

0 1
  C       14.586      -0.074    -123.148
  O       15.971       0.175    -123.233
  H       14.437      -1.106    -122.818
  H       14.129       0.050    -124.134
  H       14.102       0.596    -122.433
  P       16.481       1.692    -123.257
  C       16.644       1.697    -125.832
  O       17.330       1.901    -124.604
  C       17.557       1.098    -126.903
  O       16.805       0.833    -128.108
  C       18.681       2.054    -127.308
  O       19.825       2.032    -126.474
  C       19.017       1.560    -128.712
  O       19.954       0.471    -128.662
  C       17.662       1.079    -129.236
  N       16.959       2.610    -134.059
  C       17.766       1.598    -133.577
  N       18.526       0.954    -134.490
  N       17.833       1.269    -132.314
  C       17.092       2.063    -131.506
  C       16.264       3.103    -131.866
  C       16.156       3.424    -133.275
  O       15.461       4.315    -133.753
  N       15.669       3.675    -130.768
  C       16.193       3.033    -129.744
  N       17.042       2.028    -130.143
  O       17.616       1.726    -122.125
  O       15.428       2.725    -122.996
  H       20.767       0.786    -128.229
  H       17.701       2.628    -121.767
  H       16.927       2.802    -135.044
  H       15.973       3.237    -128.702
  H       17.756       0.130    -129.779
  H       19.479       2.346    -129.317
  H       18.595       1.248    -135.452
  H       18.301       3.078    -127.386
  H       19.314       0.399    -134.151
  H       17.950       0.138    -126.548
  H       16.280       2.674    -126.155
  H       15.769       1.060    -125.676
  P       20.327       3.377    -125.767
  C       22.075       4.161    -127.529
  O       21.836       3.622    -126.247
  O       20.479       2.937    -124.237
  O       19.416       4.546    -125.921
  H       19.681       3.184    -123.734
  H       23.129       4.258    -127.684
  H       21.614       5.124    -127.603
  H       21.663       3.510    -128.272

 6  7  8  9  10  11  12  13  14  15  26  29  33  34 0
 6-311+G(2d,p)
 ****
 36  38  39  40  41 0
 6-311+G(2d,p)
 ****
 1  2  3  4  5  16  17  18  19  20  21  22  23  24  25 0
 3-21G
 ****
 27  28  30  31  32  35  37  42  43  44  45  46  47 0
 3-21G
 ****
 48  49 0
 3-21G
 ****


