%nproc=1
%NoSave
%Mem=1900MB
#P OB98/GEN NMR

erre ene a

0 1
  C       58.557      27.940     -68.046
  O       58.775      28.549     -69.301
  H       59.134      27.012     -68.004
  H       57.499      27.698     -67.921
  H       58.887      28.594     -67.234
  P       58.149      29.998     -69.578
  C       56.231      28.853     -70.863
  O       56.583      29.783     -69.846
  C       54.714      28.701     -70.925
  O       54.187      28.404     -69.613
  C       53.986      29.957     -71.392
  O       54.117      30.125     -72.789
  C       52.578      29.659     -70.903
  O       51.903      28.755     -71.792
  C       52.859      28.973     -69.544
  N       52.737      29.890     -68.410
  C       51.450      30.324     -68.108
  O       50.455      29.978     -68.741
  N       51.349      31.214     -67.071
  C       52.395      31.765     -66.390
  O       52.276      32.716     -65.624
  C       53.722      31.214     -66.701
  C       53.833      30.327     -67.692
  O       58.857      30.827     -70.596
  O       58.171      30.697     -68.136
  H       58.929      31.309     -68.086
  H       51.175      28.355     -71.278
  H       50.426      31.571     -66.874
  H       54.571      31.578     -66.137
  H       54.806      29.929     -67.960
  H       52.164      28.139     -69.384
  H       51.963      30.558     -70.833
  H       54.368      30.833     -70.856
  H       54.483      27.852     -71.581
  H       56.685      27.886     -70.622
  H       56.627      29.203     -71.821
  P       54.501      31.544     -73.419
  C       52.047      32.172     -73.807
  O       53.270      32.543     -73.184
  O       55.002      31.497     -74.825
  O       55.625      32.121     -72.433
  H       56.412      32.371     -72.956
  H       51.298      32.904     -73.586
  H       51.734      31.218     -73.438
  H       52.189      32.115     -74.866

 6  7  8  9  10  11  12  13  14  15  16  27  31  32  33  34  35 0
 6-311+G(2d,p)
 ****
 36  37 0
 6-311+G(2d,p)
 ****
 1  2  3  4  5  17  18  19  20  21  22  23  24  25 0
 3-21G
 ****
 26  28  29  30  38  39  40  41  42  43  44  45 0
 3-21G
 ****


