%nproc=1
%NoSave
%Mem=1900MB
#P OB98/GEN NMR

erre ene a

0 1
  C       44.947    -514.142    -362.975
  O       44.008    -513.121    -363.357
  P       43.832    -511.855    -362.390
  C       42.755    -510.409    -364.264
  O       42.641    -510.941    -362.955
  C       41.370    -510.256    -364.905
  O       40.870    -511.521    -365.394
  C       40.310    -509.743    -363.948
  O       40.355    -508.326    -363.817
  C       39.033    -510.163    -364.673
  O       38.740    -509.218    -365.724
  C       39.433    -511.517    -365.275
  N       36.169    -515.451    -364.829
  C       36.282    -514.480    -365.762
  N       37.162    -513.458    -365.795
  C       38.000    -513.513    -364.746
  C       38.010    -514.444    -363.720
  C       37.035    -515.460    -363.786
  N       36.924    -516.451    -362.841
  N       39.016    -514.169    -362.817
  C       39.605    -513.091    -363.293
  N       39.028    -512.654    -364.447
  O       45.142    -510.983    -362.699
  O       43.740    -512.209    -360.939
  H       39.440    -509.332    -366.402
  H       45.439    -510.531    -361.883
  H       35.573    -514.517    -366.577
  H       40.463    -512.607    -362.832
  H       39.007    -511.668    -366.271
  H       38.161    -510.179    -364.014
  H       40.372    -510.261    -362.978
  H       41.464    -509.564    -365.761
  H       43.380    -511.056    -364.889
  H       36.222    -517.162    -362.969
  H       37.587    -516.466    -362.077
  H       43.272    -509.439    -364.214
  P       41.247    -507.730    -362.631
  C       42.229    -505.683    -363.897
  O       41.340    -506.157    -362.892
  O       42.713    -508.272    -362.966
  O       40.802    -508.146    -361.267
  H       43.223    -508.401    -362.143
  H       41.951    -504.661    -364.159
  H       42.190    -506.311    -364.792
  H       43.254    -505.689    -363.493
  H       44.953    -514.916    -363.714
  H       44.661    -514.554    -362.030
  H       45.925    -513.716    -362.897

 3  4  5  6  7  8  9  10  11  12  22  25  29  30  31  32 0
 6-311+G(2d,p)
 ****
 33  36  37 0
 6-311+G(2d,p)
 ****
 1  2  13  14  15  16  17  18  19  20  21  23  24  26 0
 3-21G
 ****
 27  28  34  35  38  39  40  41  42  43  44  45  46  47  48 0
 3-21G
 ****


