%nproc=1
%NoSave
%Mem=1900MB
#P OB98/GEN NMR

erre ene a

0 1
  C      722.191     580.837    -311.292
  O      721.592     581.591    -312.327
  H      722.886     580.119    -311.739
  H      721.423     580.286    -310.741
  H      722.741     581.492    -310.613
  P      720.668     582.824    -311.883
  C      718.608     582.924    -313.506
  O      719.936     583.321    -313.218
  C      718.290     583.113    -314.993
  O      718.291     584.536    -315.288
  C      719.301     582.449    -315.925
  O      718.603     581.959    -317.077
  C      720.214     583.592    -316.337
  O      720.883     583.332    -317.571
  C      719.219     584.767    -316.368
  N      719.881     586.057    -316.241
  C      720.283     586.685    -317.430
  O      720.078     586.138    -318.515
  N      720.940     587.890    -317.362
  C      721.226     588.398    -316.203
  N      721.902     589.582    -316.202
  C      720.868     587.749    -314.922
  C      720.205     586.608    -315.021
  O      721.755     583.964    -311.601
  O      719.764     582.534    -310.731
  H      720.208     583.266    -318.282
  H      722.444     584.019    -312.284
  H      721.143     588.211    -313.982
  H      719.885     586.066    -314.126
  H      718.650     584.761    -317.311
  H      720.977     583.760    -315.572
  H      719.841     581.625    -315.453
  H      717.279     582.746    -315.180
  H      722.142     589.973    -317.104
  H      717.895     583.502    -312.905
  H      722.231     590.040    -315.364
  H      718.500     581.866    -313.227
  P      718.698     580.404    -317.457
  C      718.386     581.226    -319.895
  O      718.133     580.186    -318.946
  O      718.163     579.458    -316.430
  O      720.276     580.186    -317.651
  H      720.512     579.322    -317.259
  H      717.960     580.958    -320.839
  H      719.442     581.360    -320.005
  H      717.945     582.138    -319.551

 6  7  8  9  10  11  12  13  14  15  16  26  30  31  32  33  35 0
 6-311+G(2d,p)
 ****
 37  38 0
 6-311+G(2d,p)
 ****
 1  2  3  4  5  17  18  19  20  21  22  23  24  25 0
 3-21G
 ****
 27  28  29  34  36  39  40  41  42  43  44  45  46 0
 3-21G
 ****


