%nproc=1
%NoSave
%Mem=1900MB
#P OB98/GEN NMR

erre ene a

0 1
  C       51.447     135.261     361.502
  O       50.121     135.117     361.032
  P       49.742     134.059     359.908
  C       47.801     132.864     361.137
  O       48.167     133.741     360.068
  C       46.283     132.805     361.267
  O       45.761     134.150     361.527
  C       45.585     132.266     359.978
  O       44.694     131.175     360.199
  C       44.951     133.518     359.397
  O       43.886     133.261     358.492
  C       44.612     134.319     360.661
  N       44.334     135.729     360.383
  C       43.055     136.042     359.921
  O       42.155     135.234     359.752
  N       42.848     137.367     359.599
  C       43.797     138.334     359.560
  O       43.569     139.479     359.167
  C       45.142     137.937     360.018
  C       45.347     136.678     360.422
  O       50.602     132.831     359.870
  O       49.773     134.911     358.558
  H       43.243     132.698     358.948
  H       49.156     135.662     358.542
  H       41.915     137.595     359.266
  H       45.916     138.677     359.990
  H       46.331     136.347     360.763
  H       43.746     133.902     361.174
  H       45.731     134.055     358.822
  H       46.318     131.867     359.280
  H       46.035     132.166     362.124
  H       48.221     133.258     362.064
  H       48.241     131.873     360.963
  P       44.634     129.839     359.313
  C       44.632     127.965     361.137
  O       43.898     128.701     360.171
  O       45.940     129.430     358.703
  O       43.560     130.193     358.176
  H       43.766     129.683     357.365
  H       44.184     126.974     361.238
  H       44.574     128.485     362.101
  H       45.686     127.860     360.847
  H       51.479     136.023     362.252
  H       52.086     135.534     360.688
  H       51.779     134.334     361.921

 3  4  5  6  7  8  9  10  11  12  13  23  28  29  30  31  32 0
 6-311+G(2d,p)
 ****
 33  34 0
 6-311+G(2d,p)
 ****
 1  2  14  15  16  17  18  19  20  21  22  24  25  26  27 0
 3-21G
 ****
 35  36  37  38  39  40  41  42  43  44  45 0
 3-21G
 ****


