%nproc=1
%NoSave
%Mem=1900MB
#P OB98/GEN NMR

erre ene a

0 1
  C      -24.163     177.062     -61.386
  O      -24.573     175.907     -62.100
  P      -24.113     175.757     -63.626
  C      -26.570     175.528     -64.439
  O      -25.266     174.963     -64.415
  C      -27.635     174.444     -64.255
  O      -27.651     173.572     -65.416
  C      -27.404     173.557     -63.023
  O      -28.670     173.166     -62.475
  C      -26.757     172.315     -63.600
  O      -26.943     171.184     -62.750
  C      -27.472     172.221     -64.949
  N      -25.505     167.672     -65.959
  C      -26.428     168.035     -64.998
  N      -26.812     167.065     -64.136
  N      -26.934     169.233     -64.896
  C      -26.454     170.102     -65.819
  C      -25.548     169.857     -66.830
  C      -24.987     168.528     -66.923
  O      -24.143     168.148     -67.732
  N      -25.331     170.976     -67.593
  C      -26.069     171.911     -67.023
  N      -26.739     171.438     -65.923
  O      -22.920     174.689     -63.536
  O      -23.650     177.021     -64.267
  H      -26.558     170.416     -63.212
  H      -22.063     175.143     -63.645
  H      -25.134     166.738     -65.992
  H      -26.131     172.943     -67.348
  H      -28.469     171.772     -64.843
  H      -25.679     172.478     -63.728
  H      -26.408     166.141     -64.121
  H      -26.795     174.020     -62.238
  H      -27.454     167.315     -63.396
  H      -28.620     174.926     -64.203
  H      -26.726     176.023     -65.399
  H      -26.658     176.281     -63.649
  P      -29.040     173.791     -61.042
  C      -29.280     171.344     -60.186
  O      -29.833     172.646     -60.251
  O      -30.176     174.865     -61.393
  O      -27.886     174.403     -60.324
  H      -30.199     175.568     -60.718
  H      -29.063     171.102     -59.142
  H      -28.359     171.253     -60.772
  H      -30.011     170.626     -60.574
  H      -24.546     177.019     -60.388
  H      -24.540     177.936     -61.875
  H      -23.094     177.103     -61.357

 3  4  5  6  7  8  9  10  11  12  23  26  30  31 0
 6-311+G(2d,p)
 ****
 33  35  36  37  38 0
 6-311+G(2d,p)
 ****
 1  2  13  14  15  16  17  18  19  20  21  22  24  25 0
 3-21G
 ****
 27  28  29  32  34  39  40  41  42  43  44  45  46  47  48  49 0
 3-21G
 ****


