%nproc=1
%NoSave
%Mem=1900MB
#P OB98/GEN NMR

erre ene a

0 1
  C       51.401     -77.687      13.383
  O       51.593     -78.307      14.637
  H       52.296     -77.797      12.768
  H       50.562     -78.170      12.874
  H       51.169     -76.627      13.517
  P       52.809     -77.768      15.533
  C       51.250     -76.591      17.238
  O       52.289     -76.442      16.280
  C       50.549     -75.252      17.456
  O       50.175     -74.715      16.163
  C       49.282     -75.327      18.326
  O       49.411     -74.467      19.462
  C       48.177     -74.784      17.433
  O       47.258     -73.941      18.126
  C       48.937     -74.021      16.355
  N       45.822     -71.117      13.557
  C       46.711     -70.799      14.524
  N       47.588     -71.605      15.156
  C       47.507     -72.860      14.678
  C       46.669     -73.329      13.681
  C       45.780     -72.397      13.120
  N       44.836     -72.732      12.175
  N       46.869     -74.680      13.469
  C       47.779     -75.029      14.354
  N       48.181     -73.967      15.120
  O       53.843     -77.205      14.447
  O       53.441     -78.786      16.422
  H       46.890     -74.470      18.860
  H       54.739     -77.539      14.644
  H       46.714     -69.760      14.837
  H       48.148     -76.034      14.515
  H       49.168     -72.993      16.662
  H       47.619     -75.626      17.007
  H       49.056     -76.347      18.657
  H       51.271     -74.554      17.898
  H       51.674     -76.929      18.190
  H       44.163     -72.029      11.915
  H       44.726     -73.704      11.927
  H       50.543     -77.347      16.882
  P       50.072     -75.109      20.781
  C       51.957     -73.318      20.901
  O       51.623     -74.694      20.789
  O       50.110     -76.672      20.437
  O       49.316     -74.828      22.036
  H       50.085     -77.196      21.260
  H       53.021     -73.207      20.892
  H       51.566     -72.930      21.818
  H       51.535     -72.780      20.078

 6  7  8  9  10  11  12  13  14  15  25  28  32  33  34  35 0
 6-311+G(2d,p)
 ****
 36  39  40 0
 6-311+G(2d,p)
 ****
 1  2  3  4  5  16  17  18  19  20  21  22  23  24 0
 3-21G
 ****
 26  27  29  30  31  37  38  41  42  43  44  45  46  47  48 0
 3-21G
 ****


