%nproc=1
%NoSave
%Mem=1900MB
#P OB98/GEN NMR

erre ene a

0 1
  C      408.177       3.993     -38.156
  O      409.520       4.384     -37.944
  P      410.669       3.418     -38.499
  C      412.120       5.557     -38.868
  O      412.060       4.225     -38.396
  C      413.538       6.102     -38.712
  O      414.466       5.292     -39.469
  C      413.717       7.522     -39.225
  O      413.228       8.476     -38.302
  C      415.235       7.594     -39.424
  O      415.906       7.894     -38.188
  C      415.558       6.157     -39.887
  N      415.786       6.081     -41.339
  C      417.052       5.652     -41.719
  O      417.949       5.388     -40.912
  N      417.273       5.586     -43.073
  C      416.382       5.932     -44.046
  O      416.665       5.904     -45.244
  C      415.063       6.399     -43.576
  C      414.837       6.448     -42.261
  O      410.393       3.348     -40.084
  O      410.696       2.055     -37.884
  H      416.847       8.076     -38.421
  H      410.591       2.452     -40.411
  H      418.177       5.250     -43.374
  H      414.338       6.685     -44.328
  H      413.882       6.802     -41.890
  H      416.453       5.795     -39.379
  H      415.512       8.374     -40.141
  H      413.213       7.637     -40.199
  H      413.824       6.034     -37.654
  H      411.423       6.170     -38.304
  H      411.813       5.582     -39.925
  P      412.391       9.712     -38.884
  C      411.810      10.041     -36.353
  O      412.053      10.634     -37.616
  O      411.004       8.974     -39.247
  O      413.062      10.380     -40.041
  H      410.807       8.249     -38.638
  H      412.425       9.160     -36.195
  H      410.745       9.777     -36.289
  H      412.035      10.778     -35.574
  H      407.521       4.727     -37.736
  H      408.002       3.048     -37.686
  H      407.992       3.909     -39.206

 3  4  5  6  7  8  9  10  11  12  13  23  28  29  30  31  32 0
 6-311+G(2d,p)
 ****
 33  34 0
 6-311+G(2d,p)
 ****
 1  2  14  15  16  17  18  19  20  21  22  24  25  26 0
 3-21G
 ****
 27  35  36  37  38  39  40  41  42  43  44  45 0
 3-21G
 ****


