%nproc=1
%NoSave
%Mem=1900MB
#P OB98/GEN NMR

erre ene a

0 1
  C     -139.554     141.941     506.136
  O     -139.954     141.489     507.415
  P     -139.045     140.376     508.128
  C     -140.990     138.633     508.049
  O     -139.639     138.941     507.717
  C     -141.640     137.854     506.899
  O     -141.455     138.563     505.649
  C     -141.035     136.474     506.677
  O     -141.530     135.542     507.620
  C     -141.457     136.180     505.247
  O     -142.801     135.665     505.204
  C     -141.390     137.577     504.599
  N     -140.207     137.747     503.761
  C     -140.367     137.445     502.411
  O     -141.431     137.039     501.935
  N     -139.252     137.589     501.629
  C     -138.003     137.942     502.064
  O     -137.034     138.006     501.321
  C     -137.892     138.228     503.507
  C     -138.976     138.110     504.273
  O     -139.426     140.507     509.682
  O     -137.580     140.525     507.903
  H     -143.027     135.546     504.258
  H     -138.635     140.341     510.231
  H     -139.347     137.401     500.643
  H     -136.915     138.506     503.883
  H     -138.907     138.291     505.342
  H     -142.276     137.744     503.976
  H     -140.812     135.429     504.771
  H     -139.940     136.530     506.722
  H     -142.717     137.782     507.092
  H     -141.544     139.559     508.229
  H     -141.007     138.039     508.968
  P     -140.460     134.824     508.566
  C     -140.529     132.655     507.105
  O     -139.758     133.712     507.647
  O     -141.417     134.002     509.557
  O     -139.537     135.792     509.250
  H     -142.232     133.717     509.112
  H     -141.533     132.994     506.834
  H     -140.592     131.847     507.824
  H     -140.031     132.288     506.196
  H     -140.247     142.676     505.785
  H     -139.535     141.115     505.456
  H     -138.577     142.374     506.200

 3  4  5  6  7  8  9  10  11  12  13  23  28  29  30  31  32 0
 6-311+G(2d,p)
 ****
 33  34 0
 6-311+G(2d,p)
 ****
 1  2  14  15  16  17  18  19  20  21  22  24  25  26 0
 3-21G
 ****
 27  35  36  37  38  39  40  41  42  43  44  45 0
 3-21G
 ****


