%nproc=1
%NoSave
%Mem=1900MB
#P OB98/GEN NMR

erre ene a

0 1
  C      -37.968      45.131      57.267
  O      -38.032      45.816      56.011
  P      -37.060      47.046      55.668
  C      -37.250      47.602      53.168
  O      -37.679      47.942      54.483
  C      -38.115      46.519      52.510
  O      -39.490      46.970      52.362
  C      -37.647      46.072      51.118
  O      -38.018      44.695      50.997
  C      -38.499      46.936      50.203
  O      -38.583      46.444      48.873
  C      -39.823      46.923      50.958
  N      -44.273      48.252      48.797
  C      -43.783      47.052      49.180
  N      -42.607      46.783      49.783
  C      -41.921      47.914      50.024
  C      -42.295      49.207      49.698
  C      -43.531      49.357      49.042
  N      -44.012      50.572      48.606
  N      -41.318      50.110      50.074
  C      -40.368      49.367      50.608
  N      -40.687      48.033      50.603
  O      -35.633      46.656      55.449
  O      -37.171      48.005      56.947
  H      -37.696      46.497      48.471
  H      -36.275      48.289      57.213
  H      -44.416      46.194      48.971
  H      -39.426      49.738      50.991
  H      -40.377      45.994      50.778
  H      -38.068      47.944      50.154
  H      -36.575      46.205      50.953
  H      -38.142      45.660      53.193
  H      -36.212      47.253      53.220
  H      -44.862      50.565      48.062
  H      -43.420      51.386      48.664
  H      -37.265      48.509      52.550
  P      -36.945      43.517      51.164
  C      -38.461      42.017      52.575
  O      -37.777      42.163      51.344
  O      -35.905      43.757      52.207
  O      -36.291      43.359      49.708
  H      -35.440      42.890      49.785
  H      -37.750      41.753      53.365
  H      -39.201      41.217      52.480
  H      -38.977      42.944      52.850
  H      -38.699      44.350      57.285
  H      -38.165      45.822      58.060
  H      -36.993      44.710      57.394

 3  4  5  6  7  8  9  10  11  12  22  25  29  30  31  32 0
 6-311+G(2d,p)
 ****
 33  36  37 0
 6-311+G(2d,p)
 ****
 1  2  13  14  15  16  17  18  19  20  21  23  24  26 0
 3-21G
 ****
 27  28  34  35  38  39  40  41  42  43  44  45  46  47  48 0
 3-21G
 ****


