%nproc=1
%NoSave
%Mem=1900MB
#P OB98/GEN NMR

erre ene a

0 1
  C       56.661    -258.629    -357.840
  O       56.403    -258.697    -356.447
  P       56.695    -260.036    -355.609
  C       54.364    -260.991    -356.198
  O       55.770    -261.167    -356.270
  C       53.677    -262.336    -355.918
  O       53.818    -263.181    -357.087
  C       54.254    -263.104    -354.721
  O       53.168    -263.784    -354.090
  C       55.200    -264.091    -355.373
  O       55.476    -265.215    -354.551
  C       54.434    -264.413    -356.664
  N       55.292    -264.961    -357.705
  C       55.636    -266.313    -357.630
  O       55.243    -267.013    -356.690
  N       56.424    -266.851    -358.617
  C       56.895    -266.088    -359.557
  N       57.621    -266.679    -360.547
  C       56.650    -264.635    -359.617
  C       55.828    -264.152    -358.684
  O       56.541    -259.897    -354.133
  O       58.153    -260.489    -356.073
  H       56.180    -265.741    -354.980
  H       58.880    -260.041    -355.570
  H       57.088    -264.035    -360.402
  H       55.567    -263.098    -358.662
  H       53.616    -265.116    -356.453
  H       56.152    -263.596    -355.594
  H       54.741    -262.447    -353.987
  H       52.602    -262.147    -355.771
  H       57.622    -267.695    -360.562
  H       54.010    -260.611    -357.161
  H       57.737    -266.234    -361.450
  H       54.122    -260.258    -355.423
  P       53.245    -264.055    -352.507
  C       53.680    -266.615    -352.595
  O       54.180    -265.336    -352.269
  O       51.779    -264.648    -352.200
  O       53.496    -262.863    -351.643
  H       51.558    -264.479    -351.265
  H       54.450    -267.364    -352.374
  H       53.438    -266.671    -353.660
  H       52.794    -266.847    -351.996
  H       56.400    -257.657    -358.204
  H       56.078    -259.369    -358.347
  H       57.700    -258.810    -358.019

 3  4  5  6  7  8  9  10  11  12  13  23  27  28  29  30  32 0
 6-311+G(2d,p)
 ****
 34  35 0
 6-311+G(2d,p)
 ****
 1  2  14  15  16  17  18  19  20  21  22  24  25  26 0
 3-21G
 ****
 31  33  36  37  38  39  40  41  42  43  44  45  46 0
 3-21G
 ****


