%nproc=1
%NoSave
%Mem=1900MB
#P OB98/GEN NMR

erre ene a

0 1
  C     -899.050    -659.292    -266.021
  O     -898.020    -658.893    -265.141
  H     -900.000    -659.257    -265.486
  H     -898.880    -660.318    -266.360
  H     -899.110    -658.620    -266.886
  P     -896.540    -658.703    -265.730
  C     -895.100    -660.025    -267.400
  O     -896.120    -660.082    -266.425
  C     -894.480    -661.414    -267.601
  O     -895.460    -662.298    -268.192
  C     -893.290    -661.428    -268.556
  O     -892.130    -660.922    -267.944
  C     -893.240    -662.905    -268.908
  O     -892.560    -663.653    -267.897
  C     -894.730    -663.288    -268.969
  N     -895.240    -663.365    -270.331
  C     -894.990    -664.553    -271.015
  O     -894.400    -665.504    -270.519
  N     -895.420    -664.581    -272.318
  C     -895.900    -663.522    -273.025
  O     -896.020    -663.528    -274.244
  C     -896.190    -662.320    -272.237
  C     -895.860    -662.278    -270.951
  O     -895.530    -658.145    -264.767
  O     -896.760    -657.718    -266.983
  H     -896.490    -656.818    -266.732
  H     -892.500    -664.569    -268.235
  H     -895.190    -665.437    -272.833
  H     -896.660    -661.484    -272.746
  H     -896.030    -661.395    -270.368
  H     -894.900    -664.251    -268.466
  H     -892.720    -663.074    -269.858
  H     -893.540    -660.848    -269.454
  H     -894.200    -661.815    -266.625
  H     -894.310    -659.331    -267.052
  H     -895.510    -659.652    -268.341
  P     -890.890    -660.415    -268.838
  C     -889.330    -661.372    -270.636
  O     -890.510    -661.585    -269.863
  O     -889.750    -659.846    -268.079
  O     -891.550    -659.311    -269.793
  H     -890.990    -658.492    -269.765
  H     -889.171    -662.210    -271.283
  H     -888.490    -661.262    -269.982
  H     -889.443    -660.485    -271.223

 6  7  8  9  10  11  12  13  14  15  16  27  31  32  33  34  35 0
 6-311+G(2d,p)
 ****
 36  37 0
 6-311+G(2d,p)
 ****
 1  2  3  4  5  17  18  19  20  21  22  23  24  25 0
 3-21G
 ****
 26  28  29  30  38  39  40  41  42  43  44  45 0
 3-21G
 ****


