%nproc=1
%NoSave
%Mem=1900MB
#P OB98/GEN NMR

erre ene a

0 1
  C      730.801     358.392     402.697
  O      731.201     359.018     403.902
  H      729.883     358.877     402.338
  H      730.589     357.334     402.879
  H      731.577     358.495     401.934
  P      732.615     358.578     404.505
  C      731.362     357.836     406.692
  O      732.324     357.534     405.690
  C      730.491     356.621     406.974
  O      730.303     355.822     405.788
  C      731.110     355.640     407.968
  O      731.104     356.131     409.289
  C      730.198     354.431     407.760
  O      728.949     354.593     408.453
  C      729.985     354.470     406.224
  N      730.788     353.470     405.525
  C      730.522     352.139     405.867
  O      729.652     351.869     406.700
  N      731.266     351.150     405.273
  C      732.179     351.456     404.401
  N      732.886     350.431     403.854
  C      732.469     352.849     403.990
  C      731.752     353.793     404.599
  O      733.078     359.887     405.298
  O      733.607     358.076     403.507
  H      729.169     354.633     409.401
  H      732.420     360.213     405.936
  H      733.229     353.053     403.263
  H      731.897     354.841     404.356
  H      728.928     354.298     405.982
  H      730.649     353.511     408.136
  H      732.119     355.357     407.653
  H      729.506     356.965     407.312
  H      732.677     349.494     404.177
  H      730.748     358.687     406.399
  H      733.641     350.552     403.203
  H      731.907     358.123     407.594
  P      732.486     356.513     410.018
  C      732.131     354.427     411.494
  O      733.039     355.150     410.660
  O      732.401     357.665     410.968
  O      733.493     356.743     408.798
  H      733.617     355.969     408.216
  H      732.610     353.543     411.861
  H      731.266     354.154     410.927
  H      731.837     355.042     412.319

 6  7  8  9  10  11  12  13  14  15  16  26  30  31  32  33  35 0
 6-311+G(2d,p)
 ****
 37  38 0
 6-311+G(2d,p)
 ****
 1  2  3  4  5  17  18  19  20  21  22  23  24  25 0
 3-21G
 ****
 27  28  29  34  36  39  40  41  42  43  44  45  46 0
 3-21G
 ****


