%nproc=1
%NoSave
%Mem=1900MB
#P OB98/GEN NMR

erre ene a

0 1
  C      242.139    -233.628     115.663
  O      242.919    -232.913     116.603
  P      242.261    -231.623     117.290
  C      243.153    -230.039     115.418
  O      242.031    -230.535     116.135
  C      242.678    -229.169     114.250
  O      241.796    -229.921     113.391
  C      241.878    -227.949     114.688
  O      242.728    -226.909     115.150
  C      241.129    -227.597     113.411
  O      241.952    -226.815     112.529
  C      240.858    -228.992     112.811
  N      239.476    -229.424     112.997
  C      238.494    -228.547     112.543
  O      238.757    -227.458     112.031
  N      237.200    -228.947     112.732
  C      236.796    -230.082     113.369
  O      235.616    -230.360     113.558
  C      237.875    -230.959     113.855
  C      239.144    -230.591     113.656
  O      243.453    -231.004     118.161
  O      241.056    -231.909     118.120
  H      241.990    -225.914     112.911
  H      243.097    -230.620     118.985
  H      236.476    -228.336     112.389
  H      237.591    -231.872     114.365
  H      239.953    -231.215     114.019
  H      241.070    -228.983     111.733
  H      240.226    -227.012     113.611
  H      241.155    -228.231     115.463
  H      243.553    -228.869     113.664
  H      243.739    -230.878     115.038
  H      243.781    -229.457     116.099
  P      242.214    -226.051     116.406
  C      241.371    -224.095     114.889
  O      241.054    -225.109     115.818
  O      243.465    -225.080     116.637
  O      241.850    -226.896     117.580
  H      243.921    -224.862     115.803
  H      242.180    -224.404     114.216
  H      241.674    -223.192     115.423
  H      240.482    -223.873     114.292
  H      242.702    -234.458     115.290
  H      241.876    -232.981     114.852
  H      241.249    -233.986     116.137

 3  4  5  6  7  8  9  10  11  12  13  23  28  29  30  31  32 0
 6-311+G(2d,p)
 ****
 33  34 0
 6-311+G(2d,p)
 ****
 1  2  14  15  16  17  18  19  20  21  22  24  25  26 0
 3-21G
 ****
 27  35  36  37  38  39  40  41  42  43  44  45 0
 3-21G
 ****


