%nproc=1
%NoSave
%Mem=1900MB
#P OB98/GEN NMR

erre ene a

0 1
  C       14.126    -120.589      17.394
  O       14.696    -119.460      16.764
  H       14.781    -121.448      17.223
  H       13.149    -120.806      16.959
  H       14.033    -120.428      18.471
  P       14.011    -118.027      16.974
  C       12.639    -118.057      14.790
  O       12.600    -118.056      16.210
  C       11.299    -117.594      14.210
  O       11.472    -117.334      12.793
  C       10.173    -118.620      14.364
  O        8.949    -117.936      14.628
  C       10.110    -119.280      13.001
  O        8.820    -119.819      12.720
  C       10.510    -118.132      12.076
  N        9.774    -118.468       7.089
  C        9.031    -117.824       8.057
  N        7.915    -117.188       7.641
  N        9.352    -117.805       9.325
  C       10.505    -118.464       9.595
  C       11.329    -119.141       8.727
  C       10.951    -119.171       7.330
  O       11.561    -119.739       6.430
  N       12.397    -119.697       9.386
  C       12.217    -119.357      10.648
  N       11.078    -118.619      10.829
  O       14.880    -116.857      16.634
  O       13.589    -118.013      18.516
  H        8.214    -119.057      12.596
  H       14.188    -117.450      19.038
  H        9.476    -118.461       6.130
  H       12.874    -119.621      11.466
  H        9.658    -117.494      11.811
  H       10.840    -120.098      12.951
  H        7.622    -117.140       6.677
  H       10.373    -119.335      15.161
  H        7.369    -116.681       8.327
  H       11.029    -116.640      14.678
  H       12.853    -119.076      14.453
  H       13.445    -117.396      14.450
  P        8.301    -118.037      16.092
  C        7.067    -120.286      15.943
  O        8.173    -119.586      16.496
  O        7.064    -117.227      16.302
  O        9.488    -117.525      17.042
  H        9.101    -117.039      17.797
  H        7.084    -121.302      16.279
  H        7.128    -120.262      14.875
  H        6.157    -119.821      16.259

 6  7  8  9  10  11  12  13  14  15  26  29  33  34 0
 6-311+G(2d,p)
 ****
 36  38  39  40  41 0
 6-311+G(2d,p)
 ****
 1  2  3  4  5  16  17  18  19  20  21  22  23  24  25 0
 3-21G
 ****
 27  28  30  31  32  35  37  42  43  44  45  46  47 0
 3-21G
 ****
 48  49 0
 3-21G
 ****


