%nproc=1
%NoSave
%Mem=1900MB
#P OB98/GEN NMR

erre ene a

0 1
  C     -246.406      33.840     -53.381
  O     -246.235      33.960     -54.784
  P     -247.273      34.886     -55.585
  C     -249.864      35.042     -55.689
  O     -248.730      34.244     -55.382
  C     -251.112      34.511     -54.981
  O     -251.037      34.858     -53.570
  C     -252.439      35.070     -55.521
  O     -253.405      34.017     -55.414
  C     -252.734      36.190     -54.537
  O     -254.079      36.636     -54.557
  C     -252.267      35.542     -53.238
  N     -254.472      39.103     -50.306
  C     -254.980      38.262     -51.236
  N     -254.331      37.334     -51.973
  C     -253.024      37.312     -51.661
  C     -252.361      38.118     -50.750
  C     -253.145      39.051     -50.050
  N     -252.623      39.913     -49.108
  N     -251.014      37.825     -50.721
  C     -250.862      36.857     -51.602
  N     -252.052      36.499     -52.179
  O     -246.938      34.565     -57.115
  O     -247.174      36.352     -55.283
  H     -254.208      37.340     -53.889
  H     -246.994      35.369     -57.665
  H     -256.048      38.346     -51.415
  H     -249.922      36.393     -51.868
  H     -252.980      34.792     -52.873
  H     -252.106      37.055     -54.785
  H     -252.381      35.397     -56.563
  H     -251.107      33.415     -55.049
  H     -250.046      35.017     -56.768
  H     -253.223      40.672     -48.813
  H     -251.615      40.009     -49.077
  H     -249.665      36.081     -55.404
  P     -254.422      33.772     -56.632
  C     -255.867      35.412     -57.981
  O     -255.235      35.153     -56.742
  O     -255.503      32.816     -55.935
  O     -253.821      33.226     -57.882
  H     -255.818      33.188     -55.091
  H     -256.460      36.327     -57.884
  H     -256.533      34.585     -58.246
  H     -255.117      35.558     -58.761
  H     -245.649      33.197     -52.983
  H     -247.370      33.426     -53.173
  H     -246.328      34.806     -52.928

 3  4  5  6  7  8  9  10  11  12  22  25  29  30  31  32 0
 6-311+G(2d,p)
 ****
 33  36  37 0
 6-311+G(2d,p)
 ****
 1  2  13  14  15  16  17  18  19  20  21  23  24  26 0
 3-21G
 ****
 27  28  34  35  38  39  40  41  42  43  44  45  46  47  48 0
 3-21G
 ****


