%nproc=1
%NoSave
%Mem=1900MB
#P OB98/GEN NMR

erre ene a

0 1
  C     -646.791    -215.189     566.341
  O     -647.489    -214.473     567.365
  P     -646.969    -213.011     567.751
  C     -649.394    -212.289     568.605
  O     -647.986    -212.339     568.805
  C     -650.075    -211.984     569.944
  O     -649.882    -213.066     570.882
  C     -649.551    -210.713     570.616
  O     -650.212    -209.541     570.140
  C     -649.794    -211.012     572.088
  O     -651.181    -210.791     572.399
  C     -649.439    -212.502     572.150
  N     -648.020    -212.883     572.374
  C     -647.319    -212.364     573.456
  O     -647.792    -211.603     574.293
  N     -646.016    -212.787     573.592
  C     -645.402    -213.765     572.855
  O     -644.268    -214.155     573.059
  C     -646.242    -214.397     571.808
  C     -647.479    -213.908     571.604
  O     -647.178    -212.161     566.423
  O     -645.557    -212.981     568.235
  H     -651.315    -211.109     573.308
  H     -646.323    -211.876     566.064
  H     -645.473    -212.381     574.320
  H     -645.820    -215.187     571.232
  H     -648.107    -214.368     570.844
  H     -650.016    -213.001     572.943
  H     -649.231    -210.332     572.719
  H     -648.461    -210.632     570.464
  H     -651.152    -211.888     569.759
  H     -649.740    -213.244     568.210
  H     -649.622    -211.516     567.857
  P     -649.548    -208.652     568.991
  C     -651.339    -207.181     567.887
  O     -650.401    -207.302     568.943
  O     -649.324    -209.336     567.677
  O     -648.162    -208.160     569.668
  H     -647.413    -208.762     569.377
  H     -651.954    -206.291     568.056
  H     -651.990    -208.057     567.855
  H     -650.823    -207.073     566.925
  H     -647.252    -216.144     566.196
  H     -645.771    -215.327     566.634
  H     -646.828    -214.632     565.428

 3  4  5  6  7  8  9  10  11  12  13  23  28  29  30  31  32 0
 6-311+G(2d,p)
 ****
 33  34 0
 6-311+G(2d,p)
 ****
 1  2  14  15  16  17  18  19  20  21  22  24  25  26  27 0
 3-21G
 ****
 35  36  37  38  39  40  41  42  43  44  45 0
 3-21G
 ****


