%nproc=1
%NoSave
%Mem=1900MB
#P OB98/GEN NMR

erre ene a

0 1
  C     -233.805      -5.357    -137.273
  O     -233.576      -4.611    -138.458
  P     -234.454      -4.972    -139.750
  C     -232.446      -6.194    -140.833
  O     -233.419      -5.168    -140.964
  C     -231.440      -6.141    -141.974
  O     -230.401      -7.130    -141.736
  C     -232.041      -6.426    -143.361
  O     -231.506      -5.494    -144.309
  C     -231.493      -7.801    -143.707
  O     -231.434      -8.012    -145.113
  C     -230.134      -7.741    -143.015
  N     -227.337     -11.267    -145.306
  C     -227.607      -9.968    -145.690
  N     -227.109      -9.576    -146.883
  N     -228.307      -9.130    -144.974
  C     -228.720      -9.648    -143.789
  C     -228.506     -10.914    -143.294
  C     -227.781     -11.850    -144.125
  O     -227.584     -13.040    -143.882
  N     -229.065     -11.061    -142.050
  C     -229.618      -9.892    -141.794
  N     -229.476      -9.015    -142.841
  O     -235.181      -3.588    -140.086
  O     -235.444      -6.072    -139.560
  H     -232.346      -7.929    -145.455
  H     -236.150      -3.720    -140.106
  H     -226.806     -11.874    -145.905
  H     -230.152      -9.647    -140.883
  H     -229.449      -7.085    -143.569
  H     -232.139      -8.567    -143.264
  H     -226.529     -10.158    -147.467
  H     -233.135      -6.397    -143.391
  H     -227.276      -8.621    -147.170
  H     -230.951      -5.158    -141.962
  H     -232.948      -7.168    -140.840
  H     -231.932      -6.073    -139.872
  P     -232.573      -4.801    -145.293
  C     -230.906      -4.858    -147.292
  O     -231.709      -4.076    -146.429
  O     -233.148      -3.590    -144.420
  O     -233.644      -5.725    -145.770
  H     -234.039      -3.338    -144.728
  H     -231.095      -5.928    -147.177
  H     -229.853      -4.660    -147.072
  H     -231.112      -4.571    -148.325
  H     -233.152      -5.008    -136.500
  H     -233.614      -6.393    -137.461
  H     -234.822      -5.233    -136.964

 3  4  5  6  7  8  9  10  11  12  23  26  30  31  33  0
 6-311+G(2d,p)
 ****
 35  36  37  38 0
 6-311+G(2d,p)
 ****
 1  2  13  14  15  16  17  18  19  20  21  22  24  25  27  28  29 0
 3-21G
 ****
 32  34  39  40  41  42  43  44  45  46  47  48  49 0
 3-21G
 ****


