%nproc=1
%NoSave
%Mem=1900MB
#P OB98/GEN NMR

erre ene a

0 1
  C      190.346    -238.086    -167.081
  O      190.145    -237.584    -165.775
  H      190.693    -237.272    -167.720
  H      189.400    -238.466    -167.477
  H      191.098    -238.881    -167.081
  P      189.956    -238.666    -164.602
  C      187.412    -238.857    -165.085
  O      188.657    -239.530    -164.987
  C      186.273    -239.786    -164.684
  O      186.192    -240.909    -165.591
  C      186.407    -240.377    -163.282
  O      185.929    -239.479    -162.287
  C      185.507    -241.591    -163.399
  O      184.123    -241.181    -163.316
  C      185.817    -242.084    -164.820
  N      187.127    -246.915    -163.996
  C      185.941    -246.263    -163.729
  N      184.965    -246.999    -163.152
  N      185.725    -244.997    -163.996
  C      186.798    -244.384    -164.548
  C      188.029    -244.922    -164.855
  C      188.243    -246.321    -164.567
  O      189.276    -246.949    -164.796
  N      188.868    -243.987    -165.406
  C      188.150    -242.879    -165.412
  N      186.888    -243.065    -164.899
  O      189.463    -237.767    -163.370
  O      191.180    -239.445    -164.253
  H      183.583    -241.994    -163.334
  H      190.215    -237.631    -162.760
  H      187.241    -247.887    -163.759
  H      188.491    -241.921    -165.782
  H      184.942    -242.532    -165.307
  H      185.667    -242.319    -162.599
  H      185.071    -247.968    -162.899
  H      187.438    -240.701    -163.074
  H      184.086    -246.541    -162.950
  H      185.332    -239.229    -164.776
  H      187.263    -238.525    -166.120
  H      187.428    -237.979    -164.429
  P      186.659    -239.471    -160.858
  C      184.971    -240.987    -159.606
  O      186.283    -240.852    -160.132
  O      185.821    -238.377    -160.043
  O      188.112    -239.130    -160.887
  H      186.374    -237.586    -159.882
  H      184.865    -241.951    -159.155
  H      184.257    -240.883    -160.396
  H      184.802    -240.229    -158.870

 6  7  8  9  10  11  12  13  14  15  26  29  33  34 0
 6-311+G(2d,p)
 ****
 36  38  39  40  41 0
 6-311+G(2d,p)
 ****
 1  2  3  4  5  16  17  18  19  20  21  22  23  24  25 0
 3-21G
 ****
 27  28  30  31  32  35  37  42  43  44  45  46  47 0
 3-21G
 ****
 48  49 0
 3-21G
 ****


