%nproc=1
%NoSave
%Mem=1900MB
#P OB98/GEN NMR

erre ene a

0 1
  C      -12.304      68.292    -263.668
  O      -13.608      67.752    -263.758
  P      -14.001      66.432    -262.932
  C      -15.925      67.565    -261.641
  O      -15.567      66.583    -262.613
  C      -17.368      68.027    -261.843
  O      -17.498      68.763    -263.073
  C      -18.379      66.892    -261.927
  O      -18.655      66.371    -260.641
  C      -19.555      67.592    -262.594
  O      -20.340      68.320    -261.635
  C      -18.843      68.564    -263.563
  N      -18.851      68.083    -264.937
  C      -19.865      68.595    -265.758
  O      -20.699      69.373    -265.302
  N      -19.933      68.169    -267.064
  C      -19.081      67.294    -267.499
  N      -19.208      66.901    -268.798
  C      -18.020      66.707    -266.656
  C      -17.963      67.143    -265.401
  O      -13.132      66.130    -261.761
  O      -13.977      65.286    -264.054
  H      -19.705      68.805    -261.073
  H      -13.051      65.047    -264.307
  H      -17.339      65.971    -267.065
  H      -17.219      66.763    -264.713
  H      -19.327      69.550    -263.543
  H      -20.226      66.890    -263.091
  H      -17.997      66.107    -262.590
  H      -17.627      68.700    -261.012
  H      -19.971      67.306    -269.330
  H      -15.254      68.420    -261.754
  H      -18.622      66.204    -269.225
  H      -15.786      67.149    -260.637
  P      -18.206      64.880    -260.268
  C      -17.586      65.276    -257.812
  O      -18.491      64.657    -258.709
  O      -16.844      64.481    -260.735
  O      -19.329      63.970    -260.971
  H      -18.892      63.217    -261.416
  H      -18.055      65.333    -256.825
  H      -17.328      66.283    -258.147
  H      -16.677      64.670    -257.737
  H      -12.236      69.164    -264.285
  H      -11.593      67.564    -263.999
  H      -12.097      68.557    -262.652

 3  4  5  6  7  8  9  10  11  12  13  23  27  28  29  30  32 0
 6-311+G(2d,p)
 ****
 34  35 0
 6-311+G(2d,p)
 ****
 1  2  14  15  16  17  18  19  20  21  22  24  25  26 0
 3-21G
 ****
 31  33  36  37  38  39  40  41  42  43  44  45  46 0
 3-21G
 ****


