%nproc=1
%NoSave
%Mem=1900MB
#P OB98/GEN NMR

erre ene a

0 1
  C      129.058      97.607    -200.946
  O      129.830      96.871    -201.873
  H      129.659      98.412    -200.519
  H      128.203      98.044    -201.470
  H      128.687      96.955    -200.150
  P      131.038      96.001    -201.277
  C      133.476      96.531    -200.546
  O      132.273      97.018    -201.124
  C      134.358      97.694    -200.092
  O      134.476      98.646    -201.182
  C      133.802      98.445    -198.878
  O      134.888      98.816    -198.026
  C      133.175      99.688    -199.486
  O      133.103     100.765    -198.560
  C      134.098      99.940    -200.674
  N      133.351     104.660    -202.471
  C      134.137     104.185    -201.482
  N      134.282     102.908    -201.070
  C      133.546     102.079    -201.830
  C      132.697     102.416    -202.869
  C      132.603     103.783    -203.181
  N      131.777     104.281    -204.163
  N      132.085     101.287    -203.379
  C      132.559     100.289    -202.660
  N      133.441     100.719    -201.710
  O      131.455      95.091    -202.531
  O      130.718      95.183    -200.073
  H      133.989     100.883    -198.158
  H      130.835      94.342    -202.607
  H      134.722     104.928    -200.946
  H      132.291      99.248    -202.780
  H      135.009     100.482    -200.390
  H      132.158      99.460    -199.825
  H      133.081      97.856    -198.309
  H      135.367      97.314    -199.895
  H      134.013      95.936    -201.291
  H      131.731     105.280    -204.282
  H      131.168     103.649    -204.661
  H      133.232      95.895    -199.687
  P      134.671      98.615    -196.448
  C      133.533      99.891    -194.501
  O      133.923      99.911    -195.866
  O      136.153      98.732    -195.853
  O      134.044      97.306    -196.095
  H      136.334      97.981    -195.257
  H      133.050     100.813    -194.255
  H      134.399      99.766    -193.885
  H      132.857      99.079    -194.335

 6  7  8  9  10  11  12  13  14  15  25  28  32  33  34  35 0
 6-311+G(2d,p)
 ****
 36  39  40 0
 6-311+G(2d,p)
 ****
 1  2  3  4  5  16  17  18  19  20  21  22  23  24 0
 3-21G
 ****
 26  27  29  30  31  37  38  41  42  43  44  45  46  47 0
 3-21G
 ****
 48 0
 3-21G
 ****


