%nproc=1
%NoSave
%Mem=1900MB
#P OB98/GEN NMR

erre ene a

0 1
  C      -48.663      31.519     -62.368
  O      -47.326      31.106     -62.541
  H      -48.720      32.597     -62.555
  H      -48.991      31.334     -61.343
  H      -49.322      31.006     -63.073
  P      -46.943      29.567     -62.284
  C      -47.340      29.958     -59.778
  O      -47.684      29.169     -60.909
  C      -48.086      29.482     -58.530
  O      -47.745      28.094     -58.260
  C      -47.756      30.292     -57.267
  O      -48.965      30.636     -56.585
  C      -46.951      29.320     -56.419
  O      -47.000      29.621     -55.026
  C      -47.577      27.986     -56.837
  N      -46.748      26.849     -56.457
  C      -47.123      26.175     -55.290
  O      -48.106      26.544     -54.646
  N      -46.344      25.137     -54.851
  C      -45.261      24.829     -55.493
  N      -44.519      23.806     -54.984
  C      -44.814      25.530     -56.711
  C      -45.600      26.519     -57.138
  O      -45.479      29.277     -62.319
  O      -47.770      28.749     -63.380
  H      -47.907      29.429     -54.699
  H      -47.336      27.876     -63.523
  H      -43.900      25.235     -57.205
  H      -45.353      27.093     -58.024
  H      -48.570      27.862     -56.384
  H      -45.900      29.352     -56.733
  H      -47.195      31.202     -57.474
  H      -49.162      29.496     -58.742
  H      -44.859      23.355     -54.141
  H      -47.584      31.004     -59.993
  H      -43.648      23.493     -55.383
  H      -46.263      29.865     -59.607
  P      -49.554      32.100     -56.877
  C      -49.002      33.071     -54.534
  O      -48.778      33.141     -55.936
  O      -51.028      32.036     -56.255
  O      -49.585      32.449     -58.329
  H      -51.688      32.045     -56.973
  H      -48.420      33.822     -54.042
  H      -48.715      32.105     -54.175
  H      -50.040      33.233     -54.330

 6  7  8  9  10  11  12  13  14  15  16  26  30  31  32  33  35 0
 6-311+G(2d,p)
 ****
 37  38 0
 6-311+G(2d,p)
 ****
 1  2  3  4  5  17  18  19  20  21  22  23  24  25 0
 3-21G
 ****
 27  28  29  34  36  39  40  41  42  43  44  45  46 0
 3-21G
 ****


