%nproc=1
%NoSave
%Mem=1900MB
#P OB98/GEN NMR

erre ene a

0 1
  C     1342.380     712.224    -242.449
  O     1343.735     711.931    -242.725
  H     1341.749     711.646    -243.130
  H     1342.168     713.285    -242.610
  H     1342.125     711.952    -241.425
  P     1344.865     712.717    -241.913
  C     1346.009     715.044    -242.150
  O     1344.899     714.216    -242.505
  C     1345.902     716.404    -242.831
  O     1345.923     716.241    -244.267
  C     1344.619     717.167    -242.525
  O     1344.679     717.735    -241.226
  C     1344.609     718.183    -243.669
  O     1345.520     719.260    -243.402
  C     1345.121     717.304    -244.839
  N     1344.046     716.766    -245.659
  C     1343.761     717.464    -246.845
  O     1344.363     718.497    -247.133
  N     1342.751     716.984    -247.646
  C     1342.136     715.906    -247.345
  N     1341.141     715.468    -248.216
  C     1342.438     715.088    -246.159
  C     1343.372     715.588    -245.362
  O     1346.216     712.065    -241.829
  O     1344.218     712.925    -240.450
  H     1345.493     719.847    -244.171
  H     1344.493     712.209    -239.854
  H     1341.897     714.188    -245.940
  H     1343.671     715.054    -244.453
  H     1345.791     717.893    -245.493
  H     1343.627     718.612    -243.821
  H     1343.748     716.520    -242.629
  H     1346.784     716.984    -242.566
  H     1340.981     716.068    -249.028
  H     1346.900     714.515    -242.472
  H     1340.712     714.569    -248.159
  H     1346.052     715.165    -241.058
  P     1343.370     717.873    -240.317
  C     1342.044     719.927    -239.496
  O     1342.839     719.351    -240.541
  O     1343.544     717.443    -238.896
  O     1342.271     717.010    -241.107
  H     1342.422     716.026    -240.948
  H     1341.754     720.919    -239.774
  H     1342.615     719.963    -238.592
  H     1341.170     719.330    -239.342

 6  7  8  9  10  11  12  13  14  15  16  26  30  31  32  33  35 0
 6-311+G(2d,p)
 ****
 37  38 0
 6-311+G(2d,p)
 ****
 1  2  3  4  5  17  18  19  20  21  22  23  24  25 0
 3-21G
 ****
 27  28  29  34  36  39  40  41  42  43  44  45  46 0
 3-21G
 ****


