%nproc=1
%NoSave
%Mem=1900MB
#P OB98/GEN NMR

erre ene a

0 1
  C      -80.267      11.383     150.988
  O      -81.558      11.302     150.413
  P      -82.411      12.648     150.254
  C      -83.766      14.151     151.887
  O      -82.721      13.205     151.726
  C      -83.777      14.696     153.316
  O      -82.498      15.341     153.596
  C      -84.880      15.732     153.581
  O      -85.302      15.574     154.943
  C      -84.137      17.046     153.430
  O      -84.801      18.139     154.047
  C      -82.795      16.673     154.065
  N      -81.726      17.613     153.729
  C      -81.727      18.841     154.384
  O      -82.568      19.176     155.217
  N      -80.750      19.720     154.003
  C      -79.849      19.534     152.995
  O      -79.073      20.409     152.625
  C      -79.895      18.218     152.339
  C      -80.814      17.332     152.730
  O      -83.832      12.123     149.739
  O      -81.818      13.655     149.325
  H      -84.138      18.837     154.197
  H      -83.910      12.242     148.775
  H      -80.728      20.611     154.475
  H      -79.180      18.028     151.548
  H      -80.884      16.361     152.251
  H      -82.896      16.612     155.156
  H      -84.024      17.280     152.364
  H      -85.735      15.646     152.904
  H      -83.872      13.852     154.011
  H      -84.721      13.667     151.680
  H      -83.639      14.965     151.164
  P      -86.770      16.093     155.340
  C      -87.838      18.458     155.661
  O      -86.744      17.688     155.209
  O      -86.760      15.835     156.922
  O      -87.873      15.382     154.625
  H      -85.924      16.101     157.339
  H      -88.307      18.012     156.543
  H      -88.579      18.537     154.862
  H      -87.487      19.458     155.919
  H      -79.831      10.407     151.024
  H      -80.342      11.777     151.980
  H      -79.652      12.027     150.395

 3  4  5  6  7  8  9  10  11  12  13  23  28  29  30  31  32 0
 6-311+G(2d,p)
 ****
 33  34 0
 6-311+G(2d,p)
 ****
 1  2  14  15  16  17  18  19  20  21  22  24  25  26 0
 3-21G
 ****
 27  35  36  37  38  39  40  41  42  43  44  45 0
 3-21G
 ****


