%nproc=1
%NoSave
%Mem=1900MB
#P OB98/GEN NMR

erre ene a

0 1
  C     -287.703      60.023      78.953
  O     -288.397      61.121      78.397
  H     -286.883      59.754      78.285
  H     -288.367      59.161      79.061
  H     -287.284      60.293      79.926
  P     -289.722      61.638      79.135
  C     -288.746      63.672      80.401
  O     -289.246      62.346      80.492
  C     -288.632      64.308      81.792
  O     -287.506      63.710      82.495
  C     -288.396      65.828      81.761
  O     -288.987      66.377      82.946
  C     -286.883      65.898      81.837
  O     -286.441      67.193      82.153
  C     -286.607      64.782      82.852
  N     -285.217      64.355      82.850
  C     -284.308      65.210      83.480
  O     -284.693      66.263      83.987
  N     -282.981      64.863      83.493
  C     -282.587      63.798      82.871
  N     -281.254      63.519      82.911
  C     -283.507      62.899      82.144
  C     -284.796      63.233      82.177
  O     -290.810      60.630      79.300
  O     -290.206      62.874      78.235
  H     -286.604      67.400      83.100
  H     -290.980      62.609      77.703
  H     -283.126      62.030      81.627
  H     -285.550      62.636      81.671
  H     -286.871      65.107      83.870
  H     -286.438      65.640      80.869
  H     -288.814      66.308      80.872
  H     -289.534      64.059      82.367
  H     -280.659      64.167      83.413
  H     -289.443      64.245      79.783
  H     -280.831      62.729      82.448
  H     -287.764      63.673      79.917
  P     -290.369      67.192      82.931
  C     -291.937      65.716      84.356
  O     -291.592      66.165      83.047
  O     -290.493      68.160      81.800
  O     -290.406      67.971      84.335
  H     -290.895      68.809      84.224
  H     -292.764      65.039      84.295
  H     -292.208      66.556      84.961
  H     -291.099      65.216      84.794

 6  7  8  9  10  11  12  13  14  15  16  26  30  31  32  33  35 0
 6-311+G(2d,p)
 ****
 37  38 0
 6-311+G(2d,p)
 ****
 1  2  3  4  5  17  18  19  20  21  22  23  24  25 0
 3-21G
 ****
 27  28  29  34  36  39  40  41  42  43  44  45  46 0
 3-21G
 ****


