%nproc=1
%NoSave
%Mem=1900MB
#P OB98/GEN NMR

erre ene a

0 1
  C       23.995      38.860     -21.722
  O       24.984      39.748     -22.196
  P       26.051      40.413     -21.204
  C       24.820      42.657     -21.509
  O       25.349      41.718     -20.578
  C       23.865      43.626     -20.802
  O       22.749      42.861     -20.246
  C       24.537      44.392     -19.643
  O       24.387      45.811     -19.707
  C       23.942      43.727     -18.411
  O       24.017      44.515     -17.239
  C       22.541      43.352     -18.907
  N       21.888      42.368     -18.048
  C       20.506      42.468     -17.904
  O       19.811      43.316     -18.456
  N       19.928      41.583     -17.036
  C       20.588      40.706     -16.227
  O       20.014      40.011     -15.400
  C       22.050      40.673     -16.395
  C       22.624      41.472     -17.297
  O       27.400      40.664     -21.790
  O       26.059      39.410     -19.954
  H       24.944      44.800     -17.129
  H       25.199      39.301     -19.510
  H       18.928      41.645     -16.921
  H       22.601      39.994     -15.760
  H       23.700      41.469     -17.442
  H       21.896      44.230     -18.980
  H       24.516      42.811     -18.216
  H       25.622      44.239     -19.650
  H       23.472      44.316     -21.555
  H       24.272      42.114     -22.283
  H       25.638      43.194     -22.001
  P       25.353      46.870     -18.994
  C       23.794      47.472     -17.001
  O       25.007      46.890     -17.431
  O       25.415      48.213     -19.644
  O       26.787      46.156     -19.040
  H       27.488      46.835     -19.070
  H       23.932      47.856     -15.984
  H       23.014      46.706     -16.983
  H       23.488      48.294     -17.653
  H       23.389      38.532     -22.540
  H       23.382      39.360     -21.002
  H       24.465      38.014     -21.264

 3  4  5  6  7  8  9  10  11  12  13  23  28  29  30  31  32 0
 6-311+G(2d,p)
 ****
 33  34 0
 6-311+G(2d,p)
 ****
 1  2  14  15  16  17  18  19  20  21  22  24  25  26  27 0
 3-21G
 ****
 35  36  37  38  39  40  41  42  43  44  45 0
 3-21G
 ****


