%nproc=1
%NoSave
%Mem=1900MB
#P OB98/GEN NMR

erre ene a

0 1
  C     1258.186      82.300    -225.791
  O     1258.427      81.600    -224.581
  P     1259.858      81.665    -223.858
  C     1261.971      80.385    -224.567
  O     1260.588      80.295    -224.250
  C     1262.513      79.005    -224.926
  O     1261.643      78.414    -225.919
  C     1263.910      78.983    -225.554
  O     1264.979      79.003    -224.626
  C     1263.876      77.641    -226.256
  O     1264.110      76.585    -225.305
  C     1262.448      77.563    -226.776
  N     1262.729      76.157    -231.691
  C     1262.861      75.460    -230.544
  N     1262.796      75.921    -229.275
  C     1262.516      77.229    -229.252
  C     1262.346      78.065    -230.336
  C     1262.458      77.491    -231.612
  N     1262.308      78.203    -232.781
  N     1262.085      79.357    -229.910
  C     1262.086      79.288    -228.607
  N     1262.330      78.021    -228.148
  O     1259.802      81.969    -222.396
  O     1260.676      82.767    -224.690
  H     1263.449      76.695    -224.593
  H     1261.450      83.059    -224.172
  H     1263.056      74.399    -230.665
  H     1261.925      80.131    -227.941
  H     1262.020      76.554    -226.724
  H     1264.652      77.531    -227.033
  H     1264.029      79.786    -226.316
  H     1262.486      78.374    -224.028
  H     1262.490      80.754    -223.672
  H     1262.285      77.674    -233.645
  H     1261.949      79.145    -232.721
  H     1262.121      81.094    -225.380
  P     1266.312      79.800    -225.059
  C     1267.482      79.342    -227.352
  O     1267.057      78.848    -226.102
  O     1267.152      80.277    -223.923
  O     1265.746      80.978    -225.977
  H     1265.348      80.686    -226.813
  H     1268.112      78.585    -227.842
  H     1268.086      80.237    -227.228
  H     1266.633      79.557    -227.982
  H     1257.178      82.129    -226.108
  H     1258.861      81.952    -226.545
  H     1258.337      83.347    -225.633

 3  4  5  6  7  8  9  10  11  12  22  25  29  30  31  32 0
 6-311+G(2d,p)
 ****
 33  36  37 0
 6-311+G(2d,p)
 ****
 1  2  13  14  15  16  17  18  19  20  21  23  24  26 0
 3-21G
 ****
 27  28  34  35  38  39  40  41  42  43  44  45  46  47  48 0
 3-21G
 ****


