%nproc=1
%NoSave
%Mem=1900MB
#P OB98/GEN NMR

erre ene a

0 1
  C     -783.324     142.692    -785.653
  O     -784.101     142.940    -786.806
  H     -782.288     142.519    -785.951
  H     -783.692     141.790    -785.148
  H     -783.364     143.545    -784.969
  P     -785.543     143.593    -786.594
  C     -786.863     142.754    -788.680
  O     -786.158     143.835    -788.066
  C     -787.110     143.077    -790.154
  O     -788.024     144.202    -790.242
  C     -785.854     143.418    -790.955
  O     -785.980     142.885    -792.276
  C     -785.928     144.934    -791.047
  O     -785.181     145.447    -792.158
  C     -787.439     145.134    -791.168
  N     -791.121     148.493    -791.802
  C     -791.095     147.134    -792.042
  N     -792.207     146.590    -792.598
  N     -790.067     146.378    -791.774
  C     -789.037     147.051    -791.203
  C     -788.939     148.391    -790.910
  C     -790.069     149.221    -791.244
  O     -790.144     150.440    -791.054
  N     -787.694     148.688    -790.389
  C     -787.045     147.526    -790.395
  N     -787.807     146.507    -790.869
  O     -785.185     145.073    -786.098
  O     -786.440     142.886    -785.636
  H     -785.633     145.171    -792.983
  H     -785.196     145.107    -785.119
  H     -791.930     149.050    -792.056
  H     -786.017     147.395    -790.066
  H     -787.813     144.908    -792.184
  H     -785.541     145.384    -790.138
  H     -793.037     147.119    -792.823
  H     -784.920     143.074    -790.490
  H     -792.206     145.588    -792.756
  H     -787.626     142.208    -790.616
  H     -787.816     142.610    -788.166
  H     -786.263     141.835    -788.575
  P     -784.963     141.700    -792.706
  C     -784.204     142.144    -795.169
  O     -785.097     141.469    -794.293
  O     -785.671     140.394    -792.073
  O     -783.580     141.866    -792.201
  H     -784.986     139.770    -791.787
  H     -784.430     141.880    -796.181
  H     -783.198     141.859    -794.942
  H     -784.312     143.201    -795.043

 6  7  8  9  10  11  12  13  14  15  26  29  33  34 0
 6-311+G(2d,p)
 ****
 36  38  39  40  41 0
 6-311+G(2d,p)
 ****
 1  2  3  4  5  16  17  18  19  20  21  22  23  24  25 0
 3-21G
 ****
 27  28  30  31  32  35  37  42  43  44  45  46  47 0
 3-21G
 ****
 48  49 0
 3-21G
 ****


