%nproc=1
%NoSave
%Mem=1900MB
#P OB98/GEN NMR

erre ene a

0 1
  C     -123.048     -76.240      -0.033
  O     -123.791     -77.445      -0.199
  P     -123.180     -78.915      -0.129
  C     -124.897     -80.249       1.351
  O     -124.378     -79.957       0.060
  C     -126.169     -79.437       1.632
  O     -127.094     -79.615       0.516
  C     -126.896     -79.900       2.899
  O     -127.386     -78.830       3.698
  C     -127.916     -80.889       2.361
  O     -128.994     -81.131       3.252
  C     -128.283     -80.266       1.017
  N     -131.934     -83.630      -0.170
  C     -131.723     -82.949       1.011
  N     -132.583     -83.203       2.019
  N     -130.743     -82.104       1.196
  C     -129.911     -82.001       0.137
  C     -130.006     -82.634      -1.081
  C     -131.123     -83.529      -1.293
  O     -131.368     -84.142      -2.327
  N     -128.979     -82.271      -1.914
  C     -128.255     -81.436      -1.196
  N     -128.785     -81.233       0.057
  O     -121.993     -79.088       0.758
  O     -122.698     -79.201      -1.641
  H     -129.433     -81.956       2.973
  H     -121.914     -79.782      -1.574
  H     -132.718     -84.252      -0.265
  H     -127.352     -80.942      -1.535
  H     -129.063     -79.509       1.113
  H     -127.403     -81.847       2.212
  H     -133.281     -83.929       1.985
  H     -126.207     -80.426       3.570
  H     -132.295     -82.874       2.942
  H     -125.905     -78.375       1.686
  H     -124.111     -79.969       2.061
  H     -125.078     -81.319       1.462
  P     -126.561     -77.753       4.539
  C     -127.073     -75.333       3.862
  O     -127.448     -76.427       4.678
  O     -125.376     -77.290       3.570
  O     -126.004     -78.261       5.828
  H     -124.514     -77.513       3.974
  H     -127.567     -74.432       4.235
  H     -127.396     -75.515       2.834
  H     -125.991     -75.182       3.888
  H     -123.704     -75.400      -0.128
  H     -122.287     -76.184      -0.783
  H     -122.595     -76.231       0.936

 3  4  5  6  7  8  9  10  11  12  23  26  30  31 0
 6-311+G(2d,p)
 ****
 33  35  36  37  38 0
 6-311+G(2d,p)
 ****
 1  2  13  14  15  16  17  18  19  20  21  22  24  25 0
 3-21G
 ****
 27  28  29  32  34  39  40  41  42  43  44  45  46  47  48  49 0
 3-21G
 ****


