%nproc=1
%NoSave
%Mem=1900MB
#P OB98/GEN NMR

erre ene a

0 1
  C      226.264     171.066    -899.010
  O      226.719     169.813    -898.480
  P      227.332     169.760    -897.010
  C      225.259     168.702    -895.830
  O      226.151     169.805    -895.890
  C      224.795     168.458    -894.380
  O      225.961     168.271    -893.500
  C      223.951     169.612    -893.770
  O      223.040     168.995    -892.850
  C      225.008     170.390    -892.990
  O      224.442     171.230    -891.990
  C      225.872     169.264    -892.450
  N      227.216     169.670    -891.990
  C      227.310     170.710    -891.110
  O      226.354     171.398    -890.720
  N      228.575     171.047    -890.700
  C      229.749     170.453    -891.120
  O      230.836     170.795    -890.740
  C      229.568     169.333    -892.070
  C      228.329     169.031    -892.470
  O      227.951     171.249    -896.860
  O      228.388     168.735    -896.780
  H      223.713     171.726    -892.430
  H      228.852     171.204    -896.470
  H      228.662     171.821    -890.070
  H      230.467     168.827    -892.420
  H      228.199     168.181    -893.160
  H      225.351     168.758    -891.620
  H      225.557     171.040    -893.700
  H      223.445     170.193    -894.520
  H      224.242     167.494    -894.340
  H      225.773     167.806    -896.190
  H      224.387     168.895    -896.480
  P      221.609     168.479    -893.450
  C      221.911     165.904    -893.140
  O      221.843     167.006    -894.010
  O      221.527     169.373    -894.790
  O      220.449     168.690    -892.520
  H      222.370     169.393    -895.280
  H      221.160     165.986    -892.320
  H      222.924     165.862    -892.690
  H      221.719     164.989    -893.690
  H      225.886     170.918    -900.000
  H      227.079     171.758    -899.039
  H      225.487     171.456    -898.386

 3  4  5  6  7  8  9  10  11  12  13  23  28  29  30  31  32 0
 6-311+G(2d,p)
 ****
 33  34 0
 6-311+G(2d,p)
 ****
 1  2  14  15  16  17  18  19  20  21  22  24  25  26 0
 3-21G
 ****
 27  35  36  37  38  39  40  41  42  43  44  45 0
 3-21G
 ****


