%nproc=1
%NoSave
%Mem=1900MB
#P OB98/GEN NMR

erre ene a

0 1
  C     -340.994    -169.519    -567.303
  O     -340.330    -170.679    -566.838
  H     -340.416    -168.641    -567.003
  H     -341.993    -169.449    -566.860
  H     -341.068    -169.544    -568.392
  P     -341.045    -172.085    -567.141
  C     -340.128    -173.087    -564.950
  O     -340.134    -173.165    -566.371
  C     -338.709    -172.812    -564.438
  O     -338.491    -171.379    -564.426
  C     -338.461    -173.335    -563.023
  O     -337.132    -173.846    -562.933
  C     -338.588    -172.091    -562.159
  O     -337.859    -172.202    -560.937
  C     -338.072    -171.002    -563.099
  N     -336.821    -166.220    -561.851
  C     -336.079    -167.268    -562.264
  N     -336.496    -168.512    -562.595
  C     -337.844    -168.596    -562.508
  C     -338.723    -167.617    -562.093
  C     -338.163    -166.370    -561.745
  N     -338.909    -165.305    -561.300
  N     -340.020    -168.105    -562.093
  C     -339.914    -169.351    -562.509
  N     -338.613    -169.702    -562.753
  O     -341.307    -172.379    -568.578
  O     -342.341    -171.999    -566.207
  H     -338.299    -172.876    -560.379
  H     -342.119    -171.649    -565.323
  H     -335.010    -167.093    -562.335
  H     -340.743    -170.043    -562.638
  H     -336.980    -170.918    -563.091
  H     -339.640    -171.921    -561.911
  H     -339.175    -174.103    -562.730
  H     -337.988    -173.235    -565.151
  H     -340.494    -174.024    -564.515
  H     -338.427    -164.447    -561.084
  H     -339.914    -165.398    -561.232
  H     -340.799    -172.278    -564.652
  P     -336.862    -175.105    -561.980
  C     -334.985    -173.936    -560.645
  O     -335.335    -175.040    -561.465
  O     -337.305    -176.429    -562.502
  O     -337.678    -174.713    -560.651
  H     -338.080    -175.522    -560.280
  H     -333.953    -174.008    -560.372
  H     -335.589    -173.942    -559.762
  H     -335.149    -173.026    -561.183

 6  7  8  9  10  11  12  13  14  15  25  28  32  33  34  35 0
 6-311+G(2d,p)
 ****
 36  39  40 0
 6-311+G(2d,p)
 ****
 1  2  3  4  5  16  17  18  19  20  21  22  23  24 0
 3-21G
 ****
 26  27  29  30  31  37  38  41  42  43  44  45  46  47 0
 3-21G
 ****
 48 0
 3-21G
 ****


