%nproc=1
%NoSave
%Mem=1900MB
#P OB98/GEN NMR

erre ene a

0 1
  C        6.729    -499.930     -18.119
  O        7.681    -498.955     -17.677
  P        7.272    -497.428     -17.398
  C        8.800    -497.150     -15.343
  O        8.493    -496.695     -16.658
  C       10.311    -497.205     -15.101
  O       10.896    -498.344     -15.760
  C       11.077    -495.985     -15.612
  O       10.940    -494.900     -14.716
  C       12.490    -496.550     -15.731
  O       13.140    -496.556     -14.447
  C       12.220    -497.985     -16.199
  N       15.371    -497.583     -20.208
  C       15.563    -497.386     -18.883
  N       14.672    -497.510     -17.879
  C       13.476    -497.902     -18.351
  C       13.131    -498.137     -19.672
  C       14.143    -497.961     -20.631
  N       13.942    -498.146     -21.979
  N       11.805    -498.500     -19.774
  C       11.361    -498.502     -18.531
  N       12.333    -498.148     -17.637
  O        5.953    -497.262     -16.715
  O        7.250    -496.742     -18.844
  H       12.547    -497.012     -13.822
  H        6.619    -495.998     -18.845
  H       16.567    -497.089     -18.595
  H       10.353    -498.756     -18.232
  H       12.909    -498.699     -15.733
  H       13.121    -495.972     -16.411
  H       10.715    -495.705     -16.606
  H       10.476    -497.330     -14.023
  H        8.374    -498.153     -15.214
  H       14.711    -497.966     -22.605
  H       13.015    -498.382     -22.309
  H        8.332    -496.473     -14.620
  P       10.081    -493.615     -15.134
  C        9.671    -493.336     -12.619
  O        9.962    -492.682     -13.837
  O        8.790    -493.902     -15.831
  O       11.074    -492.783     -16.077
  H       10.553    -492.280     -16.729
  H        8.598    -493.542     -12.565
  H        9.946    -492.675     -11.791
  H       10.231    -494.268     -12.531
  H        7.216    -500.875     -18.241
  H        6.311    -499.621     -19.054
  H        5.949    -500.022     -17.392

 3  4  5  6  7  8  9  10  11  12  22  25  29  30  31  32 0
 6-311+G(2d,p)
 ****
 33  36  37 0
 6-311+G(2d,p)
 ****
 1  2  13  14  15  16  17  18  19  20  21  23  24  26 0
 3-21G
 ****
 27  28  34  35  38  39  40  41  42  43  44  45  46  47  48 0
 3-21G
 ****


