%nproc=1
%NoSave
%Mem=1900MB
#P OB98/GEN NMR

erre ene a

0 1
  C     -438.769    1141.589    -736.667
  O     -439.204    1140.280    -736.299
  P     -439.404    1139.203    -737.482
  C     -441.543    1137.935    -736.771
  O     -440.110    1137.946    -736.805
  C     -442.047    1136.893    -735.772
  O     -441.506    1135.584    -736.132
  C     -441.636    1137.102    -734.318
  O     -442.482    1138.079    -733.680
  C     -441.833    1135.721    -733.740
  O     -443.223    1135.520    -733.422
  C     -441.424    1134.809    -734.898
  N     -438.336    1131.725    -732.303
  C     -439.664    1131.991    -732.134
  N     -440.297    1131.315    -731.155
  N     -440.355    1132.849    -732.867
  C     -439.618    1133.405    -733.858
  C     -438.260    1133.231    -734.139
  C     -437.527    1132.329    -733.277
  O     -436.332    1132.114    -733.354
  N     -437.896    1133.982    -735.219
  C     -439.004    1134.568    -735.635
  N     -440.076    1134.289    -734.811
  O     -437.899    1138.681    -737.737
  O     -440.024    1139.735    -738.726
  H     -443.747    1135.797    -734.188
  H     -437.825    1138.345    -738.659
  H     -437.872    1131.050    -731.733
  H     -439.064    1135.225    -736.491
  H     -442.101    1133.958    -735.019
  H     -441.253    1135.563    -732.822
  H     -439.869    1130.563    -730.650
  H     -440.584    1137.382    -734.260
  H     -441.286    1131.462    -731.030
  H     -443.138    1136.827    -735.860
  H     -441.932    1137.706    -737.766
  H     -441.901    1138.933    -736.469
  P     -441.727    1139.373    -733.085
  C     -443.480    1139.238    -731.160
  O     -442.824    1140.046    -732.121
  O     -441.676    1140.352    -734.339
  O     -440.392    1139.116    -732.506
  H     -440.929    1140.990    -734.258
  H     -442.759    1138.494    -730.753
  H     -444.319    1138.742    -731.599
  H     -443.801    1139.882    -730.330
  H     -438.679    1142.195    -735.790
  H     -439.483    1142.028    -737.332
  H     -437.819    1141.525    -737.155

 3  4  5  6  7  8  9  10  11  12  23  26  30  31  33  0
 6-311+G(2d,p)
 ****
 35  36  37  38 0
 6-311+G(2d,p)
 ****
 1  2  13  14  15  16  17  18  19  20  21  22  24  25  27  28  29 0
 3-21G
 ****
 32  34  39  40  41  42  43  44  45  46  47  48  49 0
 3-21G
 ****


