%nproc=1
%NoSave
%Mem=1900MB
#P OB98/GEN NMR

erre ene a

0 1
  C      -87.213      92.796       3.440
  O      -87.568      92.112       2.256
  H      -87.462      92.165       4.298
  H      -87.768      93.735       3.521
  H      -86.138      92.995       3.449
  P      -87.333      92.896       0.876
  C      -84.867      92.458       0.259
  O      -86.215      92.030       0.108
  C      -83.918      91.259       0.195
  O      -84.093      90.469       1.401
  C      -84.175      90.335      -1.004
  O      -82.925      89.822      -1.471
  C      -84.987      89.203      -0.399
  O      -84.901      88.006      -1.166
  C      -84.379      89.116       1.000
  N      -86.111      84.612       2.630
  C      -85.089      84.946       1.812
  N      -84.679      86.181       1.449
  C      -85.412      87.126       2.071
  C      -86.483      86.939       2.926
  C      -86.839      85.604       3.198
  N      -87.900      85.253       3.999
  N      -87.006      88.157       3.317
  C      -86.256      89.063       2.717
  N      -85.294      88.484       1.935
  O      -87.030      94.352       1.004
  O      -88.664      92.541       0.061
  H      -85.482      87.332      -0.755
  H      -88.873      91.588       0.113
  H      -84.529      84.115       1.388
  H      -86.379      90.139       2.801
  H      -83.443      88.542       1.019
  H      -86.044      89.492      -0.346
  H      -84.702      90.830      -1.819
  H      -82.884      91.626       0.201
  H      -84.741      92.974       1.216
  H      -88.083      84.270       4.143
  H      -88.453      85.975       4.437
  H      -84.645      93.163      -0.548
  P      -82.078      90.678      -2.530
  C      -80.692      92.703      -1.738
  O      -80.788      91.286      -1.786
  O      -82.858      91.659      -3.342
  O      -81.430      89.547      -3.466
  H      -81.479      89.837      -4.397
  H      -79.798      92.983      -1.221
  H      -81.541      93.101      -1.222
  H      -80.665      93.093      -2.734

 6  7  8  9  10  11  12  13  14  15  25  28  32  33  34  35 0
 6-311+G(2d,p)
 ****
 36  39  40 0
 6-311+G(2d,p)
 ****
 1  2  3  4  5  16  17  18  19  20  21  22  23  24 0
 3-21G
 ****
 26  27  29  30  31  37  38  41  42  43  44  45  46  47 0
 3-21G
 ****
 48 0
 3-21G
 ****


