%nproc=1
%NoSave
%Mem=1900MB
#P OB98/GEN NMR

erre ene a

0 1
  C     -235.668     209.012    -151.066
  O     -234.434     208.966    -151.756
  H     -235.655     208.258    -150.277
  H     -236.483     208.783    -151.757
  H     -235.829     209.991    -150.612
  P     -234.066     210.149    -152.769
  C     -231.843     210.899    -151.695
  O     -232.466     210.248    -152.795
  C     -230.447     210.330    -151.437
  O     -230.575     208.932    -151.032
  C     -229.520     210.369    -152.661
  O     -228.178     210.524    -152.181
  C     -229.719     208.982    -153.244
  O     -228.679     208.645    -154.141
  C     -229.805     208.150    -151.961
  N     -230.401     206.830    -152.194
  C     -229.518     205.781    -152.440
  O     -228.299     205.932    -152.491
  N     -230.085     204.556    -152.663
  C     -231.424     204.300    -152.725
  O     -231.875     203.193    -152.968
  C     -232.312     205.455    -152.510
  C     -231.773     206.646    -152.252
  O     -234.767     211.445    -152.528
  O     -234.400     209.550    -154.216
  H     -227.811     208.735    -153.701
  H     -234.669     210.266    -154.819
  H     -229.458     203.790    -152.830
  H     -233.374     205.283    -152.566
  H     -232.398     207.517    -152.086
  H     -228.805     207.997    -151.529
  H     -230.657     208.926    -153.798
  H     -229.766     211.172    -153.362
  H     -230.000     210.864    -150.584
  H     -232.475     210.750    -150.810
  H     -231.773     211.970    -151.901
  P     -227.102     211.457    -152.916
  C     -226.809     213.431    -151.284
  O     -226.246     212.234    -151.805
  O     -227.687     212.350    -153.969
  O     -226.053     210.435    -153.562
  H     -225.646     210.834    -154.351
  H     -226.145     213.850    -150.557
  H     -227.750     213.212    -150.824
  H     -226.956     214.132    -152.079

 6  7  8  9  10  11  12  13  14  15  16  26  31  32  33  34  35 0
 6-311+G(2d,p)
 ****
 36  37 0
 6-311+G(2d,p)
 ****
 1  2  3  4  5  17  18  19  20  21  22  23  24  25 0
 3-21G
 ****
 27  28  29  30  38  39  40  41  42  43  44  45 0
 3-21G
 ****


