%nproc=1
%NoSave
%Mem=1900MB
#P OB98/GEN NMR

erre ene a

0 1
  C      -68.105     -44.147      74.493
  O      -69.045     -45.002      73.871
  H      -68.197     -43.147      74.060
  H      -67.092     -44.517      74.314
  H      -68.294     -44.086      75.568
  P      -69.230     -46.452      74.526
  C      -69.257     -47.744      72.244
  O      -69.952     -47.382      73.429
  C      -70.096     -48.716      71.421
  O      -69.462     -49.000      70.158
  C      -70.264     -50.087      72.054
  O      -71.141     -50.073      73.159
  C      -70.794     -50.883      70.869
  O      -72.211     -50.736      70.724
  C      -70.050     -50.231      69.678
  N      -69.066     -51.128      69.102
  C      -69.495     -51.847      67.978
  O      -70.631     -51.679      67.534
  N      -68.640     -52.758      67.416
  C      -67.473     -52.958      67.944
  N      -66.686     -53.899      67.357
  C      -66.983     -52.224      69.128
  C      -67.824     -51.332      69.653
  O      -70.383     -46.198      75.604
  O      -67.986     -47.047      75.090
  H      -72.362     -49.821      70.405
  H      -71.153     -45.722      75.251
  H      -65.996     -52.417      69.522
  H      -67.546     -50.749      70.523
  H      -70.761     -49.951      68.889
  H      -70.595     -51.951      70.980
  H      -69.284     -50.498      72.330
  H      -71.069     -48.246      71.225
  H      -67.082     -54.417      66.582
  H      -68.288     -48.190      72.488
  H      -65.794     -54.194      67.726
  H      -69.067     -46.828      71.677
  P      -70.870     -50.981      74.449
  C      -72.460     -52.886      73.754
  O      -72.204     -51.847      74.693
  O      -70.385     -50.250      75.655
  O      -69.851     -52.089      73.904
  H      -70.188     -52.629      73.169
  H      -73.367     -53.389      74.017
  H      -71.649     -53.584      73.765
  H      -72.556     -52.466      72.775

 6  7  8  9  10  11  12  13  14  15  16  26  30  31  32  33  35 0
 6-311+G(2d,p)
 ****
 37  38 0
 6-311+G(2d,p)
 ****
 1  2  3  4  5  17  18  19  20  21  22  23  24  25 0
 3-21G
 ****
 27  28  29  34  36  39  40  41  42  43  44  45  46 0
 3-21G
 ****


