%nproc=1
%NoSave
%Mem=1900MB
#P OB98/GEN NMR

erre ene a

0 1
  C      261.083    -920.838    -133.098
  O      261.105    -919.426    -133.161
  H      260.061    -921.177    -133.291
  H      261.386    -921.173    -132.109
  H      261.743    -921.264    -133.858
  P      262.534    -918.715    -133.003
  C      261.583    -916.489    -133.947
  O      262.252    -917.141    -132.863
  C      260.644    -915.409    -133.429
  O      259.386    -916.028    -133.021
  C      261.187    -914.625    -132.226
  O      260.736    -913.266    -132.339
  C      260.465    -915.265    -131.047
  O      260.419    -914.417    -129.900
  C      259.107    -915.543    -131.691
  N      255.801    -915.985    -127.912
  C      256.361    -914.862    -128.486
  N      255.988    -913.664    -127.984
  N      257.214    -914.904    -129.480
  C      257.484    -916.168    -129.910
  C      257.006    -917.358    -129.421
  C      256.074    -917.297    -128.306
  O      255.562    -918.254    -127.746
  N      257.537    -918.422    -130.110
  C      258.327    -917.872    -130.999
  N      258.335    -916.500    -130.926
  O      263.163    -918.865    -134.464
  O      263.428    -919.291    -131.948
  H      260.102    -913.530    -130.197
  H      263.717    -919.668    -134.517
  H      255.157    -915.893    -127.144
  H      258.918    -918.412    -131.737
  H      258.491    -914.639    -131.776
  H      260.967    -916.197    -130.766
  H      255.300    -913.552    -127.253
  H      262.276    -914.642    -132.126
  H      256.353    -912.827    -128.423
  H      260.401    -914.730    -134.261
  H      261.002    -917.240    -134.503
  H      262.332    -916.057    -134.616
  P      261.538    -912.281    -133.319
  C      259.387    -911.479    -134.540
  O      260.535    -911.117    -133.791
  O      261.701    -913.168    -134.652
  O      262.861    -911.822    -132.801
  H      262.506    -912.893    -135.132
  H      258.824    -910.600    -134.777
  H      258.781    -912.146    -133.964
  H      259.690    -911.964    -135.445

 6  7  8  9  10  11  12  13  14  15  26  29  33  34 0
 6-311+G(2d,p)
 ****
 36  38  39  40  41 0
 6-311+G(2d,p)
 ****
 1  2  3  4  5  16  17  18  19  20  21  22  23  24  25 0
 3-21G
 ****
 27  28  30  31  32  35  37  42  43  44  45  46  47 0
 3-21G
 ****
 48  49 0
 3-21G
 ****


