%nproc=1
%NoSave
%Mem=1900MB
#P OB98/GEN NMR

erre ene a

0 1
  C      -39.428      43.073    -898.360
  O      -38.278      43.802    -897.960
  P      -37.973      43.906    -896.390
  C      -35.788      42.518    -896.650
  O      -36.386      43.734    -896.240
  C      -34.277      42.700    -896.820
  O      -33.981      43.381    -898.070
  C      -33.631      43.531    -895.720
  O      -33.460      42.742    -894.550
  C      -32.307      43.922    -896.400
  O      -31.311      42.915    -896.200
  C      -32.709      44.050    -897.880
  N      -32.741      45.419    -898.360
  C      -31.535      45.948    -898.820
  O      -30.511      45.260    -898.790
  N      -31.507      47.242    -899.260
  C      -32.589      47.965    -899.220
  N      -32.517      49.237    -899.670
  C      -33.890      47.458    -898.730
  C      -33.895      46.197    -898.290
  O      -38.533      42.516    -895.810
  O      -38.567      45.087    -895.710
  H      -31.195      42.837    -895.230
  H      -38.798      42.601    -894.880
  H      -34.767      48.098    -898.720
  H      -34.803      45.742    -897.910
  H      -31.995      43.490    -898.520
  H      -31.910      44.844    -895.980
  H      -34.214      44.413    -895.510
  H      -33.812      41.695    -896.880
  H      -31.595      49.581    -900.000
  H      -36.201      42.222    -897.640
  H      -33.292      49.887    -899.710
  H      -36.003      41.735    -895.940
  P      -33.551      43.502    -893.150
  C      -35.851      42.530    -892.570
  O      -34.466      42.567    -892.220
  O      -34.533      44.715    -893.480
  O      -32.259      43.963    -892.540
  H      -34.580      45.335    -892.710
  H      -36.335      41.734    -891.990
  H      -35.991      42.285    -893.620
  H      -36.320      43.482    -892.340
  H      -39.506      43.087    -899.427
  H      -40.301      43.521    -897.933
  H      -39.344      42.061    -898.022

 3  4  5  6  7  8  9  10  11  12  13  21  23  27  28  29  30  32 0
 6-311+G(2d,p)
 ****
 34  35 0
 6-311+G(2d,p)
 ****
 1  2  14  15  16  17  18  19  20  22  24  25  26 0
 3-21G
 ****
 31  33  36  37  38  39  40  41  42  43  44  45  46 0
 3-21G
 ****


