%nproc=1
%NoSave
%Mem=1900MB
#P OB98/GEN NMR

erre ene a

0 1
  C     -194.622     -89.300      72.455
  O     -195.222     -88.054      72.757
  P     -194.413     -86.928      73.552
  C     -193.174     -86.757      75.790
  O     -194.133     -87.486      75.034
  C     -193.046     -87.311      77.206
  O     -192.667     -88.715      77.137
  C     -192.000     -86.602      78.084
  O     -192.505     -86.621      79.425
  C     -190.795     -87.519      77.976
  O     -189.870     -87.344      79.045
  C     -191.489     -88.879      77.951
  N     -188.338     -92.755      79.054
  C     -188.977     -91.864      79.842
  N     -189.780     -90.844      79.471
  C     -189.894     -90.791      78.133
  C     -189.277     -91.609      77.200
  C     -188.474     -92.647      77.710
  N     -187.842     -93.583      76.919
  N     -189.596     -91.202      75.917
  C     -190.386     -90.162      76.077
  N     -190.648     -89.918      77.400
  O     -195.011     -85.560      73.506
  O     -192.959     -86.947      72.881
  H     -190.333     -87.512      79.886
  H     -192.847     -86.162      72.312
  H     -188.835     -91.993      80.912
  H     -190.797     -89.553      75.282
  H     -191.806     -89.196      78.953
  H     -190.266     -87.324      77.033
  H     -191.780     -85.576      77.770
  H     -194.035     -87.270      77.684
  H     -193.503     -85.712      75.837
  H     -187.402     -94.359      77.393
  H     -188.140     -93.692      75.952
  H     -192.200     -86.791      75.283
  P     -191.985     -85.542      80.489
  C     -189.735     -84.895      81.521
  O     -190.425     -85.823      80.705
  O     -192.798     -85.438      81.739
  O     -191.994     -84.168      79.663
  H     -191.969     -83.415      80.280
  H     -189.484     -84.005      80.931
  H     -188.810     -85.354      81.879
  H     -190.341     -84.598      82.384
  H     -195.320     -89.912      71.923
  H     -194.339     -89.789      73.364
  H     -193.754     -89.141      71.850

 3  4  5  6  7  8  9  10  11  12  22  25  29  30  31  32 0
 6-311+G(2d,p)
 ****
 33  36  37 0
 6-311+G(2d,p)
 ****
 1  2  13  14  15  16  17  18  19  20  21  23  24  26 0
 3-21G
 ****
 27  28  34  35  38  39  40  41  42  43  44  45  46  47  48 0
 3-21G
 ****


