%nproc=1
%NoSave
%Mem=1900MB
#P OB98/GEN NMR

erre ene a

0 1
  C      665.646     246.769     409.666
  O      664.353     247.316     409.520
  P      663.088     246.597     410.210
  C      661.808     247.192     408.053
  O      662.105     246.179     409.015
  C      661.746     246.588     406.654
  O      662.727     245.525     406.508
  C      660.415     245.924     406.319
  O      659.283     246.761     406.223
  C      660.790     245.109     405.090
  O      660.800     245.922     403.914
  C      662.226     244.655     405.444
  N      662.278     243.249     405.835
  C      662.877     242.382     404.934
  O      663.352     242.753     403.857
  N      662.899     241.058     405.287
  C      662.333     240.519     406.404
  O      662.340     239.319     406.642
  C      661.698     241.476     407.320
  C      661.693     242.776     406.999
  O      662.444     247.383     411.307
  O      663.678     245.184     410.677
  H      659.871     246.188     403.740
  H      664.030     244.633     409.958
  H      663.308     240.413     404.629
  H      661.251     241.087     408.230
  H      661.223     243.506     407.664
  H      662.889     244.794     404.586
  H      660.078     244.297     404.916
  H      660.189     245.210     407.118
  H      662.000     247.371     405.930
  H      662.605     247.949     408.080
  H      660.871     247.687     408.315
  P      658.105     246.780     407.312
  C      656.289     247.022     405.478
  O      656.755     246.308     406.599
  O      658.037     247.984     408.201
  O      658.472     245.495     408.207
  H      658.189     245.652     409.128
  H      655.338     246.582     405.150
  H      657.006     246.948     404.656
  H      656.132     248.074     405.736
  H      666.352     247.379     409.142
  H      665.662     245.778     409.262
  H      665.904     246.735     410.704

 3  4  5  6  7  8  9  10  11  12  13  23  28  29  30  31  32 0
 6-311+G(2d,p)
 ****
 33  34 0
 6-311+G(2d,p)
 ****
 1  2  14  15  16  17  18  19  20  21  22  24  25  26  27 0
 3-21G
 ****
 35  36  37  38  39  40  41  42  43  44  45 0
 3-21G
 ****


