%nproc=1
%NoSave
%Mem=1900MB
#P OB98/GEN NMR

erre ene a

0 1
  C      -14.647    -184.870     -92.696
  O      -13.487    -185.332     -92.029
  P      -12.681    -184.306     -91.096
  C      -14.220    -184.803     -89.025
  O      -13.691    -183.855     -89.934
  C      -13.478    -184.729     -87.687
  O      -13.545    -183.365     -87.185
  C      -14.043    -185.648     -86.596
  O      -12.932    -186.106     -85.813
  C      -14.918    -184.708     -85.784
  O      -15.155    -185.182     -84.467
  C      -14.092    -183.420     -85.854
  N      -14.872    -182.213     -85.570
  C      -14.246    -181.184     -84.873
  O      -13.086    -181.235     -84.468
  N      -15.018    -180.077     -84.629
  C      -16.337    -179.930     -84.943
  O      -16.986    -178.923     -84.683
  C      -16.958    -181.069     -85.633
  C      -16.207    -182.134     -85.918
  O      -12.588    -183.028     -92.051
  O      -11.372    -184.833     -90.617
  H      -13.380    -182.906     -92.603
  H      -14.295    -185.419     -84.073
  H      -14.572    -179.301     -84.160
  H      -18.007    -180.997     -85.887
  H      -16.642    -182.987     -86.426
  H      -13.244    -183.478     -85.162
  H      -15.885    -184.591     -86.285
  H      -14.586    -186.502     -87.009
  H      -12.420    -184.954     -87.868
  H      -14.107    -185.808     -89.440
  H      -15.291    -184.614     -88.889
  P      -13.088    -187.498     -85.018
  C      -11.053    -188.651     -86.194
  O      -12.438    -188.642     -85.928
  O      -14.663    -187.750     -85.196
  O      -12.667    -187.456     -83.586
  H      -14.962    -187.640     -86.113
  H      -10.763    -189.651     -86.526
  H      -10.473    -188.397     -85.303
  H      -10.828    -187.936     -86.992
  H      -15.067    -185.667     -93.274
  H      -14.387    -184.059     -93.343
  H      -15.364    -184.536     -91.975

 3  4  5  6  7  8  9  10  11  12  13  24  28  29  30  31  32 0
 6-311+G(2d,p)
 ****
 33  34 0
 6-311+G(2d,p)
 ****
 1  2  14  15  16  17  18  19  20  21  22  23  25  26  27 0
 3-21G
 ****
 35  36  37  38  39  40  41  42  43  44  45 0
 3-21G
 ****


