%nproc=1
%NoSave
%Mem=1900MB
#P OB98/GEN NMR

erre ene a

0 1
  C      377.046     832.021    -714.234
  O      377.869     831.408    -713.263
  H      377.082     833.103    -714.080
  H      376.017     831.681    -714.121
  H      377.406     831.792    -715.238
  P      378.103     829.824    -713.392
  C      380.623     830.406    -713.145
  O      379.642     829.612    -713.805
  C      382.004     829.769    -713.291
  O      382.073     828.589    -712.457
  C      382.334     829.354    -714.720
  O      383.729     829.621    -714.976
  C      382.112     827.855    -714.733
  O      382.866     827.178    -715.739
  C      382.479     827.478    -713.289
  N      381.841     826.234    -712.874
  C      382.413     825.046    -713.362
  O      383.383     825.092    -714.113
  N      381.818     823.857    -713.044
  C      380.697     823.842    -712.381
  N      380.144     822.624    -712.129
  C      380.034     825.072    -711.898
  C      380.653     826.218    -712.186
  O      377.317     829.438    -714.732
  O      377.667     829.013    -712.211
  H      382.594     827.543    -716.619
  H      376.945     828.531    -714.676
  H      379.098     825.009    -711.374
  H      380.233     827.172    -711.876
  H      383.570     827.371    -713.188
  H      381.041     827.647    -714.914
  H      381.737     829.870    -715.478
  H      382.753     830.480    -712.909
  H      380.628     821.810    -712.481
  H      380.373     830.463    -712.080
  H      379.263     822.500    -711.653
  H      380.614     831.426    -713.565
  P      384.071     830.960    -715.767
  C      385.787     831.679    -713.933
  O      384.647     832.041    -714.701
  O      382.638     831.562    -716.151
  O      384.919     830.756    -716.974
  H      382.477     831.454    -717.112
  H      386.048     832.486    -713.280
  H      386.607     831.471    -714.588
  H      385.564     830.808    -713.353

 6  7  8  9  10  11  12  13  14  15  16  26  30  31  32  33  35 0
 6-311+G(2d,p)
 ****
 37  38 0
 6-311+G(2d,p)
 ****
 1  2  3  4  5  17  18  19  20  21  22  23  24  25 0
 3-21G
 ****
 27  28  29  34  36  39  40  41  42  43  44  45  46 0
 3-21G
 ****


