%nproc=1
%NoSave
%Mem=1900MB
#P OB98/GEN NMR

erre ene a

0 1
  C     -386.210    -234.871     158.944
  O     -385.610    -233.984     158.018
  H     -386.892    -234.303     159.583
  H     -385.446    -235.342     159.571
  H     -386.780    -235.641     158.412
  P     -384.526    -234.607     157.016
  C     -382.140    -235.611     157.266
  O     -383.223    -234.936     157.895
  C     -381.324    -236.351     158.322
  O     -382.206    -237.129     159.167
  C     -380.331    -237.355     157.742
  O     -379.157    -236.725     157.253
  C     -380.067    -238.231     158.956
  O     -379.066    -237.660     159.815
  C     -381.445    -238.258     159.654
  N     -382.144    -239.520     159.449
  C     -381.497    -240.658     159.930
  O     -380.409    -240.619     160.496
  N     -382.134    -241.849     159.708
  C     -383.305    -242.020     159.025
  O     -383.785    -243.123     158.789
  C     -383.951    -240.777     158.547
  C     -383.346    -239.611     158.770
  O     -384.084    -233.344     156.134
  O     -385.021    -235.739     156.174
  H     -384.515    -233.383     155.259
  H     -378.308    -237.432     159.235
  H     -381.671    -242.682     160.039
  H     -384.885    -240.876     158.002
  H     -383.792    -238.690     158.403
  H     -381.323    -238.110     160.737
  H     -379.705    -239.224     158.671
  H     -380.808    -237.962     156.967
  H     -380.807    -235.616     158.950
  H     -381.496    -234.878     156.768
  H     -382.540    -236.305     156.516
  P     -378.426    -237.361     155.976
  C     -376.761    -239.359     155.624
  O     -377.565    -238.607     156.506
  O     -377.329    -236.234     155.656
  O     -379.357    -237.677     154.851
  H     -376.975    -235.811     156.451
  H     -376.271    -240.140     156.166
  H     -376.028    -238.720     155.178
  H     -377.375    -239.787     154.859

 6  7  8  9  10  11  12  13  14  15  16  27  31  32  33  34  35 0
 6-311+G(2d,p)
 ****
 36  37 0
 6-311+G(2d,p)
 ****
 1  2  3  4  5  17  18  19  20  21  22  23  24  25 0
 3-21G
 ****
 26  28  29  30  38  39  40  41  42  43  44  45 0
 3-21G
 ****


