%nproc=1
%NoSave
%Mem=1900MB
#P OB98/GEN NMR

erre ene a

0 1
  C      406.768     731.367    1182.217
  O      405.760     730.582    1182.839
  H      406.387     731.715    1181.256
  H      407.669     730.771    1182.045
  H      407.002     732.228    1182.844
  P      406.135     729.927    1184.256
  C      404.164     731.163    1185.386
  O      404.746     729.904    1185.059
  C      402.630     731.111    1185.248
  O      402.278     731.199    1183.837
  C      402.033     729.811    1185.801
  O      400.782     730.116    1186.448
  C      401.749     728.978    1184.556
  O      400.710     728.027    1184.739
  C      401.448     730.072    1183.517
  N      399.651     727.240    1179.659
  C      399.089     727.629    1180.843
  N      399.636     728.406    1181.800
  C      400.875     728.814    1181.438
  C      401.565     728.492    1180.283
  C      400.897     727.661    1179.373
  N      401.453     727.240    1178.183
  N      402.825     729.089    1180.293
  C      402.875     729.753    1181.430
  N      401.722     729.602    1182.172
  O      407.271     730.570    1184.989
  O      406.336     728.390    1183.870
  H      399.904     728.522    1185.008
  H      405.635     728.084    1183.263
  H      398.080     727.269    1181.025
  H      403.734     730.339    1181.777
  H      400.399     730.385    1183.532
  H      402.678     728.438    1184.277
  H      402.701     729.292    1186.504
  H      402.207     731.993    1185.738
  H      404.565     731.944    1184.709
  H      400.903     726.665    1177.578
  H      402.380     727.564    1177.934
  H      404.445     731.413    1186.415
  P      400.113     728.984    1187.394
  C      400.609     730.112    1189.672
  O      399.602     729.695    1188.745
  O      400.927     727.734    1187.576
  O      398.738     728.682    1186.630
  H      398.550     727.709    1186.701
  H      400.145     730.567    1190.522
  H      401.258     730.819    1189.199
  H      401.177     729.262    1189.988

 6  7  8  9  10  11  12  13  14  15  25  28  32  33  34  35 0
 6-311+G(2d,p)
 ****
 36  39  40 0
 6-311+G(2d,p)
 ****
 1  2  3  4  5  16  17  18  19  20  21  22  23  24 0
 3-21G
 ****
 26  27  29  30  31  37  38  41  42  43  44  45  46  47 0
 3-21G
 ****
 48 0
 3-21G
 ****


