%nproc=1
%NoSave
%Mem=1900MB
#P OB98/GEN NMR

erre ene a

0 1
  C      511.961      62.685    -101.018
  O      511.609      61.606    -100.176
  H      512.330      62.285    -101.965
  H      512.751      63.281    -100.553
  H      511.088      63.313    -101.217
  P      511.024      61.989     -98.733
  C      508.456      61.890     -99.177
  O      509.609      62.698     -99.001
  C      507.267      62.485     -98.414
  O      507.092      63.874     -98.828
  C      505.933      61.770     -98.688
  O      505.107      61.914     -97.518
  C      505.361      62.606     -99.820
  O      503.993      62.327    -100.014
  C      505.741      63.998     -99.321
  N      502.741      66.309    -102.759
  C      502.483      65.361    -101.832
  N      503.332      64.802    -100.944
  C      504.559      65.337    -101.058
  C      504.971      66.315    -101.947
  C      503.999      66.809    -102.833
  N      504.260      67.770    -103.783
  N      506.313      66.604    -101.767
  C      506.698      65.812    -100.785
  N      505.676      65.026    -100.334
  O      511.970      63.189     -98.260
  O      510.990      60.878     -97.738
  H      503.837      61.360    -100.046
  H      512.688      62.845     -97.696
  H      501.457      64.998    -101.805
  H      507.699      65.765    -100.374
  H      505.109      64.316     -98.484
  H      505.864      62.379    -100.765
  H      506.049      60.708     -98.923
  H      507.501      62.502     -97.344
  H      508.675      60.886     -98.799
  H      508.212      61.829    -100.242
  H      503.512      68.058    -104.391
  H      505.197      68.138    -103.863
  P      504.351      60.623     -96.931
  C      506.062      60.298     -94.979
  O      505.406      59.740     -96.108
  O      504.135      59.735     -98.249
  O      503.047      60.889     -96.255
  H      503.343      59.175     -98.142
  H      506.725      59.572     -94.557
  H      505.334      60.583     -94.249
  H      506.621      61.159     -95.281

 6  7  8  9  10  11  12  13  14  15  25  28  32  33  34  35 0
 6-311+G(2d,p)
 ****
 36  37  40 0
 6-311+G(2d,p)
 ****
 1  2  3  4  5  16  17  18  19  20  21  22  23  24 0
 3-21G
 ****
 26  27  29  30  31  38  39 41  42  43  44  45  46  47  48 0
 3-21G
 ****


