%nproc=1
%NoSave
%Mem=1900MB
#P OB98/GEN NMR

erre ene a

0 1
  C      773.651    -270.701    -593.232
  O      774.133    -270.234    -591.994
  H      772.604    -270.386    -593.338
  H      773.692    -271.791    -593.261
  H      774.227    -270.283    -594.062
  P      775.714    -270.159    -591.754
  C      776.128    -268.043    -590.338
  O      775.966    -269.451    -590.334
  C      775.752    -267.411    -588.989
  O      774.359    -267.612    -588.708
  C      776.521    -268.068    -587.826
  O      777.821    -267.548    -587.592
  C      775.600    -267.767    -586.646
  O      775.850    -266.462    -586.105
  C      774.197    -267.821    -587.290
  N      770.102    -270.114    -585.282
  C      770.456    -268.769    -585.257
  N      769.641    -267.952    -584.544
  N      771.513    -268.293    -585.853
  C      772.285    -269.236    -586.437
  C      772.040    -270.591    -586.511
  C      770.835    -271.107    -585.900
  O      770.484    -272.284    -585.890
  N      773.051    -271.249    -587.195
  C      773.933    -270.295    -587.448
  N      773.496    -269.055    -587.036
  O      776.195    -269.034    -592.795
  O      776.459    -271.443    -591.975
  H      775.309    -266.353    -585.304
  H      777.127    -269.183    -593.039
  H      769.254    -270.411    -584.845
  H      774.879    -270.451    -587.959
  H      773.567    -267.001    -586.932
  H      775.740    -268.492    -585.838
  H      768.874    -268.292    -583.984
  H      776.573    -269.153    -587.961
  H      769.999    -267.033    -584.280
  H      775.928    -266.331    -589.030
  H      775.473    -267.647    -591.123
  H      777.150    -267.777    -590.614
  P      779.078    -268.530    -587.578
  C      780.745    -266.787    -588.551
  O      780.395    -267.615    -587.467
  O      779.131    -269.079    -589.088
  O      779.005    -269.647    -586.596
  H      778.678    -269.942    -589.149
  H      781.640    -266.250    -588.315
  H      779.952    -266.094    -588.741
  H      780.909    -267.388    -589.421

 6  7  8  9  10  11  12  13  14  15  26  29  33  34 0
 6-311+G(2d,p)
 ****
 36  38  39  40  41 0
 6-311+G(2d,p)
 ****
 1  2  3  4  5  16  17  18  19  20  21  22  23  24  25 0
 3-21G
 ****
 27  28  30  31  32  35  37  42  43  44  45  46  47 0
 3-21G
 ****
 48  49 0
 3-21G
 ****


