%nproc=1
%NoSave
%Mem=1900MB
#P OB98/GEN NMR

erre ene a

0 1
  C      129.421     887.492     988.636
  O      128.879     886.795     987.516
  P      127.294     886.577     987.476
  C      125.542     886.291     985.552
  O      126.901     886.224     985.969
  C      125.422     885.992     984.055
  O      126.120     886.988     983.280
  C      126.058     884.643     983.650
  O      125.202     883.573     983.963
  C      126.253     884.862     982.150
  O      125.068     884.584     981.415
  C      126.608     886.354     982.078
  N      128.034     886.591     981.882
  C      128.519     886.393     980.597
  O      127.794     886.010     979.672
  N      129.866     886.593     980.415
  C      130.764     886.943     981.371
  O      131.959     887.051     981.160
  C      130.200     887.107     982.729
  C      128.883     886.924     982.926
  O      126.685     888.050     987.692
  O      126.768     885.614     988.483
  H      125.253     884.801     980.492
  H      125.852     887.993     988.214
  H      130.215     886.495     979.475
  H      130.875     887.377     983.531
  H      128.463     887.052     983.917
  H      126.074     886.827     981.266
  H      127.037     884.201     981.753
  H      127.027     884.538     984.147
  H      124.359     886.027     983.789
  H      125.151     887.299     985.760
  H      124.965     885.561     986.135
  P      125.731     882.092     983.606
  C      124.565     879.780     983.997
  O      124.811     881.100     984.478
  O      127.161     882.114     984.359
  O      125.807     881.832     982.144
  H      127.142     882.643     985.173
  H      125.444     879.385     983.486
  H      123.703     879.806     983.313
  H      124.324     879.141     984.864
  H      130.483     887.564     988.531
  H      129.186     886.960     989.534
  H      129.000     888.474     988.683

 3  4  5  6  7  8  9  10  11  12  13  23  28  29  30  31  32 0
 6-311+G(2d,p)
 ****
 33  34 0
 6-311+G(2d,p)
 ****
 1  2  14  15  16  17  18  19  20  21  22  24  25  26 0
 3-21G
 ****
 27  35  36  37  38  39  40  41  42  43  44  45 0
 3-21G
 ****


