%nproc=1
%NoSave
%Mem=1900MB
#P OB98/GEN NMR

erre ene a

0 1
  C        0.822     -87.323    -230.174
  O        1.027     -87.037    -231.542
  H       -0.087     -87.920    -230.070
  H        0.699     -86.395    -229.611
  H        1.665     -87.891    -229.770
  P        2.376     -86.265    -231.931
  C        1.072     -84.036    -232.272
  O        2.120     -84.714    -231.596
  C        1.399     -82.545    -232.370
  O        1.691     -82.046    -231.038
  C        2.621     -82.248    -233.250
  O        2.400     -81.027    -233.960
  C        3.739     -82.062    -232.240
  O        4.825     -81.282    -232.723
  C        2.981     -81.398    -231.085
  N        3.674     -81.529    -229.806
  C        4.897     -80.882    -229.669
  O        5.399     -80.144    -230.519
  N        5.558     -81.107    -228.488
  C        5.141     -81.914    -227.472
  O        5.788     -82.095    -226.447
  C        3.844     -82.579    -227.678
  C        3.183     -82.362    -228.818
  O        2.372     -86.296    -233.533
  O        3.631     -86.821    -231.350
  H        2.836     -87.090    -233.858
  H        5.448     -81.138    -231.984
  H        6.447     -80.643    -228.373
  H        3.483     -83.235    -226.896
  H        2.233     -82.849    -229.007
  H        2.804     -80.337    -231.304
  H        4.134     -83.036    -231.932
  H        2.841     -83.050    -233.954
  H        0.513     -82.008    -232.730
  H        0.141     -84.164    -231.711
  H        0.950     -84.464    -233.273
  P        1.750     -81.134    -235.427
  C        3.747     -80.749    -237.073
  O        2.920     -81.673    -236.386
  O        1.597     -79.592    -235.817
  O        0.485     -81.925    -235.447
  H        2.325     -79.035    -235.497
  H        4.465     -81.282    -237.660
  H        4.255     -80.129    -236.364
  H        3.145     -80.139    -237.713

 6  7  8  9  10  11  12  13  14  15  16  27  31  32  33  34  35 0
 6-311+G(2d,p)
 ****
 36  37 0
 6-311+G(2d,p)
 ****
 1  2  3  4  5  17  18  19  20  21  22  23  24  25 0
 3-21G
 ****
 26  28  29  30  38  39  40  41  42  43  44  45 0
 3-21G
 ****


