%nproc=1
%NoSave
%Mem=1900MB
#P OB98/GEN NMR

erre ene a

0 1
  C     -180.391    -215.074     -16.679
  O     -181.603    -215.318     -17.367
  H     -179.624    -215.785     -16.997
  H     -180.054    -214.062     -16.911
  H     -180.551    -215.155     -15.600
  P     -182.208    -216.798     -17.238
  C     -182.392    -218.044     -19.503
  O     -181.552    -217.662     -18.423
  C     -182.393    -216.962     -20.575
  O     -181.103    -216.324     -20.643
  C     -182.666    -217.465     -21.989
  O     -184.048    -217.698     -22.212
  C     -182.154    -216.289     -22.808
  O     -183.154    -215.253     -22.845
  C     -180.940    -215.820     -21.994
  N     -176.897    -214.659     -24.938
  C     -178.009    -213.960     -24.620
  N     -179.045    -214.334     -23.842
  C     -178.854    -215.570     -23.355
  C     -177.771    -216.402     -23.591
  C     -176.760    -215.904     -24.431
  N     -175.637    -216.633     -24.763
  N     -177.912    -217.592     -22.910
  C     -179.060    -217.485     -22.272
  N     -179.669    -216.282     -22.515
  O     -183.730    -216.622     -17.708
  O     -182.124    -217.408     -15.878
  H     -182.726    -214.464     -23.224
  H     -184.295    -217.219     -17.182
  H     -178.075    -212.960     -25.044
  H     -179.482    -218.244     -21.624
  H     -180.902    -214.726     -21.923
  H     -181.922    -216.555     -23.842
  H     -182.066    -218.353     -22.218
  H     -183.130    -216.202     -20.285
  H     -183.414    -218.190     -19.137
  H     -174.866    -216.157     -25.201
  H     -175.541    -217.563     -24.372
  H     -182.025    -218.991     -19.917
  P     -184.448    -218.720     -23.387
  C     -185.340    -217.703     -25.602
  O     -184.214    -217.915     -24.755
  O     -186.042    -218.797     -23.272
  O     -183.816    -220.065     -23.296
  H     -186.359    -219.647     -23.637
  H     -185.035    -217.157     -26.470
  H     -186.084    -217.145     -25.073
  H     -185.746    -218.647     -25.899

 6  7  8  9  10  11  12  13  14  15  25  28  32  33  34  35 0
 6-311+G(2d,p)
 ****
 36  39  40 0
 6-311+G(2d,p)
 ****
 1  2  3  4  5  16  17  18  19  20  21  22  23  24 0
 3-21G
 ****
 26  27  29  30  31  37  38  41  42  43  44  45  46  47  48 0
 3-21G
 ****


