%nproc=1
%NoSave
%Mem=1900MB
#P OB98/GEN NMR

erre ene a

0 1
  C     -145.088    -701.609      89.957
  O     -143.845    -702.251      89.662
  P     -142.751    -702.485      90.815
  C     -140.886    -702.416      89.076
  O     -141.434    -703.144      90.161
  C     -140.020    -703.277      88.139
  O     -138.680    -703.432      88.663
  C     -140.566    -704.687      87.874
  O     -140.192    -705.014      86.535
  C     -139.787    -705.520      88.880
  O     -139.797    -706.911      88.554
  C     -138.416    -704.836      88.829
  N     -137.615    -705.112      90.013
  C     -136.665    -706.131      89.926
  O     -136.571    -706.799      88.895
  N     -135.893    -706.401      91.022
  C     -136.101    -705.785      92.133
  N     -135.302    -706.114      93.193
  C     -137.148    -704.750      92.302
  C     -137.853    -704.464      91.212
  O     -143.264    -703.199      92.027
  O     -142.275    -701.001      91.193
  H     -139.227    -707.048      87.770
  H     -142.007    -700.981      92.134
  H     -137.306    -704.273      93.261
  H     -138.636    -703.720      91.224
  H     -137.849    -705.173      87.946
  H     -140.231    -705.403      89.879
  H     -141.647    -704.762      88.010
  H     -139.928    -702.736      87.184
  H     -134.622    -706.845      93.046
  H     -140.263    -701.603      89.475
  H     -135.458    -705.772      94.132
  H     -141.689    -701.946      88.500
  P     -141.252    -705.073      85.341
  C     -140.454    -707.470      84.914
  O     -140.759    -706.218      84.336
  O     -141.554    -703.760      84.696
  O     -142.577    -705.711      86.003
  H     -143.338    -705.531      85.431
  H     -140.338    -708.216      84.117
  H     -141.255    -707.794      85.587
  H     -139.513    -707.398      85.474
  H     -145.677    -701.546      89.066
  H     -144.901    -700.624      90.331
  H     -145.616    -702.176      90.695

 3  4  5  6  7  8  9  10  11  12  13  23  27  28  29  30  32 0
 6-311+G(2d,p)
 ****
 34  35 0
 6-311+G(2d,p)
 ****
 1  2  14  15  16  17  18  19  20  21  22  24  25  26 0
 3-21G
 ****
 31  33  36  37  38  39  40  41  42  43  44  45  46 0
 3-21G
 ****


