%nproc=1
%NoSave
%Mem=1900MB
#P OB98/GEN NMR

erre ene a

0 1
  C      504.926      36.209     329.918
  O      504.097      35.067     329.995
  H      504.307      37.108     329.876
  H      505.553      36.259     330.815
  H      505.580      36.156     329.041
  P      503.322      34.625     328.661
  C      504.379      32.267     328.357
  O      503.219      33.022     328.702
  C      504.283      30.839     328.888
  O      504.747      30.827     330.271
  C      502.854      30.262     328.882
  O      502.933      28.878     328.519
  C      502.418      30.364     330.339
  O      501.422      29.415     330.688
  C      503.749      30.161     331.064
  N      502.508      29.007     335.869
  C      502.717      28.239     334.779
  N      503.106      28.628     333.543
  C      503.331      29.953     333.506
  C      503.151      30.865     334.537
  C      502.704      30.345     335.756
  N      502.406      31.143     336.852
  N      503.431      32.154     334.084
  C      503.740      32.009     332.810
  N      503.683      30.698     332.408
  O      504.408      34.904     327.515
  O      502.035      35.340     328.395
  H      501.787      28.515     330.593
  H      504.340      35.827     327.221
  H      502.558      27.174     334.919
  H      503.976      32.815     332.123
  H      504.032      29.095     331.144
  H      502.021      31.372     330.523
  H      502.161      30.780     328.205
  H      504.963      30.202     328.322
  H      505.261      32.756     328.797
  H      501.994      30.693     337.656
  H      502.450      32.150     336.756
  H      504.486      32.265     327.265
  P      502.083      28.387     327.244
  C      504.014      28.162     325.498
  O      503.042      27.511     326.300
  O      501.882      29.743     326.408
  O      500.774      27.746     327.598
  H      501.021      29.722     325.949
  H      504.560      27.433     324.937
  H      504.688      28.707     326.126
  H      503.527      28.838     324.826

 6  7  8  9  10  11  12  13  14  15  25  28  32  33  34  35 0
 6-311+G(2d,p)
 ****
 36  39  40 0
 6-311+G(2d,p)
 ****
 1  2  3  4  5  16  17  18  19  20  21  22  23  24 0
 3-21G
 ****
 26  27  29  30  31  37  38  41  42  43  44  45  46  47 0
 3-21G
 ****
 48 0
 3-21G
 ****


