%nproc=1
%NoSave
%Mem=1900MB
#P OB98/GEN NMR

erre ene a

0 1
  C     -243.668     441.528     149.609
  O     -244.189     440.759     148.542
  H     -244.402     442.288     149.886
  H     -242.753     442.030     149.280
  H     -243.457     440.901     150.480
  P     -243.475     439.356     148.233
  C     -242.832     439.986     145.793
  O     -242.374     439.642     147.093
  C     -241.781     440.817     145.062
  O     -240.511     440.101     145.098
  C     -242.118     441.095     143.585
  O     -241.664     442.414     143.245
  C     -241.245     440.092     142.847
  O     -240.979     440.487     141.507
  C     -240.012     440.075     143.747
  N     -235.563     438.644     141.909
  C     -236.044     439.902     142.221
  N     -235.243     440.954     141.944
  N     -237.217     440.110     142.756
  C     -237.914     438.974     142.995
  C     -237.552     437.674     142.734
  C     -236.256     437.453     142.125
  O     -235.780     436.367     141.809
  N     -238.562     436.805     143.070
  C     -239.535     437.581     143.518
  N     -239.190     438.903     143.492
  O     -244.618     438.548     147.455
  O     -242.980     438.610     149.428
  H     -240.476     441.322     141.531
  H     -245.110     437.985     148.082
  H     -234.659     438.538     141.487
  H     -240.506     437.236     143.849
  H     -239.370     440.952     143.599
  H     -241.735     439.110     142.831
  H     -234.315     440.869     141.563
  H     -243.180     440.995     143.341
  H     -235.567     441.880     142.202
  H     -241.634     441.760     145.607
  H     -243.756     440.571     145.882
  H     -243.054     439.068     145.236
  P     -242.652     443.645     143.522
  C     -243.785     443.522     141.184
  O     -243.948     443.481     142.597
  O     -241.881     444.885     142.869
  O     -242.933     443.880     144.976
  H     -242.049     445.693     143.393
  H     -244.737     443.399     140.711
  H     -243.130     442.733     140.878
  H     -243.365     444.465     140.901

 6  7  8  9  10  11  12  13  14  15  26  29  33  34 0
 6-311+G(2d,p)
 ****
 36  38  39  40  41 0
 6-311+G(2d,p)
 ****
 1  2  3  4  5  16  17  18  19  20  21  22  23  24  25 0
 3-21G
 ****
 27  28  30  31  32  35  37  42  43  44  45  46  47 0
 3-21G
 ****
 48  49 0
 3-21G
 ****


