%nproc=1
%NoSave
%Mem=1900MB
#P OB98/GEN NMR

erre ene a

0 1
  C     -613.185    1042.721    -187.609
  O     -612.085    1042.362    -186.805
  H     -613.878    1041.878    -187.700
  H     -613.721    1043.550    -187.127
  H     -612.848    1043.040    -188.594
  P     -611.191    1041.128    -187.309
  C     -612.782    1039.584    -185.953
  O     -612.097    1039.802    -187.184
  C     -613.857    1038.533    -186.136
  O     -613.277    1037.422    -186.905
  C     -614.420    1037.933    -184.815
  O     -615.834    1038.127    -184.765
  C     -614.136    1036.448    -184.905
  O     -615.213    1035.641    -184.432
  C     -613.894    1036.212    -186.400
  N     -613.803    1031.143    -186.781
  C     -614.805    1032.033    -186.933
  N     -614.739    1033.380    -186.928
  C     -613.471    1033.789    -186.762
  C     -612.342    1033.009    -186.617
  C     -612.533    1031.613    -186.611
  N     -611.513    1030.712    -186.397
  N     -611.211    1033.799    -186.450
  C     -611.663    1035.036    -186.462
  N     -613.024    1035.087    -186.623
  O     -610.112    1040.952    -186.141
  O     -610.539    1041.323    -188.640
  H     -616.025    1035.965    -184.878
  H     -609.215    1040.881    -186.535
  H     -615.790    1031.603    -187.076
  H     -611.066    1035.931    -186.319
  H     -614.829    1036.055    -186.953
  H     -613.240    1036.219    -184.325
  H     -613.948    1038.381    -183.935
  H     -614.671    1038.944    -186.743
  H     -613.251    1040.521    -185.630
  H     -611.772    1029.744    -186.300
  H     -610.594    1031.063    -186.171
  H     -612.052    1039.293    -185.186
  P     -616.378    1039.348    -183.851
  C     -616.268    1038.013    -181.618
  O     -615.792    1039.132    -182.380
  O     -617.925    1039.027    -183.691
  O     -616.136    1040.698    -184.456
  H     -618.434    1039.853    -183.556
  H     -615.787    1038.002    -180.662
  H     -616.046    1037.106    -182.140
  H     -617.326    1038.097    -181.484

 6  7  8  9  10  11  12  13  14  15  25  28  32  33  34  35 0
 6-311+G(2d,p)
 ****
 36  39  40 0
 6-311+G(2d,p)
 ****
 1  2  3  4  5  16  17  18  19  20  21  22  23  24 0
 3-21G
 ****
 26  27  29  30  31  37  38  41  42  43  44  45  46  47  48 0
 3-21G
 ****


