%nproc=1
%NoSave
%Mem=1900MB
#P OB98/GEN NMR

erre ene a

0 1
  C      467.798     465.103    -519.718
  O      466.746     464.493    -518.969
  P      466.377     465.082    -517.523
  C      468.131     464.052    -515.951
  O      467.732     465.220    -516.663
  C      469.545     464.202    -515.339
  O      469.591     465.312    -514.396
  C      470.037     462.958    -514.600
  O      471.458     462.868    -514.816
  C      469.751     463.298    -513.140
  O      470.486     462.497    -512.233
  C      470.087     464.794    -513.146
  N      469.518     465.496    -512.005
  C      470.372     465.770    -510.925
  O      471.529     465.319    -510.936
  N      469.891     466.497    -509.886
  C      468.631     466.822    -509.830
  N      468.193     467.559    -508.780
  C      467.658     466.383    -510.853
  C      468.170     465.762    -511.917
  O      465.246     464.409    -516.812
  O      466.015     466.624    -517.838
  H      471.445     462.667    -512.358
  H      465.309     466.914    -517.234
  H      466.603     466.592    -510.744
  H      467.543     465.420    -512.734
  H      471.174     464.949    -513.144
  H      468.681     463.146    -512.937
  H      469.573     462.025    -514.932
  H      470.236     464.435    -516.154
  H      468.862     467.828    -508.073
  H      468.127     463.196    -516.628
  H      467.237     467.890    -508.697
  H      467.394     463.825    -515.174
  P      471.998     461.978    -516.046
  C      471.946     459.609    -514.980
  O      471.368     460.505    -515.911
  O      473.532     461.741    -515.627
  O      471.925     462.619    -517.400
  H      474.052     461.570    -516.440
  H      471.245     458.780    -514.807
  H      472.145     460.099    -514.023
  H      472.885     459.201    -515.377
  H      467.914     464.593    -520.651
  H      468.711     465.044    -519.164
  H      467.557     466.130    -519.900

 3  4  5  6  7  8  9  10  11  12  13  23  27  28  29  30  32 0
 6-311+G(2d,p)
 ****
 34  35 0
 6-311+G(2d,p)
 ****
 1  2  14  15  16  17  18  19  20  21  22  24  25  26 0
 3-21G
 ****
 31  33  36  37  38  39  40  41  42  43  44  45  46 0
 3-21G
 ****


