%nproc=1
%NoSave
%Mem=1900MB
#P OB98/GEN NMR

erre ene a

0 1
  C      461.318     184.974     656.879
  O      459.882     185.001     656.808
  P      459.068     185.199     658.170
  C      458.385     187.670     657.679
  O      459.075     186.771     658.530
  C      457.500     188.606     658.503
  O      456.441     187.883     659.182
  C      458.231     189.358     659.590
  O      458.912     190.506     659.093
  C      457.079     189.783     660.500
  O      456.430     190.944     659.945
  C      456.156     188.574     660.428
  N      453.773     185.824     664.032
  C      453.317     186.701     663.112
  N      454.010     187.415     662.207
  C      455.317     187.124     662.282
  C      455.938     186.242     663.163
  C      455.101     185.566     664.066
  N      455.575     184.669     664.997
  N      457.292     186.210     662.950
  C      457.503     187.042     661.950
  N      456.337     187.629     661.515
  O      460.036     184.572     659.279
  O      457.721     184.557     658.176
  H      457.107     191.644     659.881
  H      459.505     184.155     659.988
  H      452.241     186.870     663.112
  H      458.476     187.264     661.509
  H      455.102     188.856     660.422
  H      457.422     190.050     661.507
  H      458.927     188.696     660.133
  H      457.029     189.333     657.809
  H      457.780     187.121     656.954
  H      454.909     184.205     665.594
  H      456.551     184.460     665.019
  H      459.113     188.246     657.101
  P      460.409     190.775     659.591
  C      461.410     191.232     657.242
  O      461.367     190.381     658.359
  O      460.638     189.600     660.664
  O      460.627     192.124     660.174
  H      461.260     189.893     661.354
  H      462.300     190.990     656.653
  H      461.464     192.282     657.546
  H      460.535     191.073     656.611
  H      461.721     184.836     655.897
  H      461.629     184.167     657.509
  H      461.673     185.899     657.283

 3  4  5  6  7  8  9  10  11  12  22  25  29  30  31  32 0
 6-311+G(2d,p)
 ****
 33  36  37 0
 6-311+G(2d,p)
 ****
 1  2  13  14  15  16  17  18  19  20  21  23  24  26 0
 3-21G
 ****
 27  28  34  35  38  39  40  41  42  43  44  45  46  47  48 0
 3-21G
 ****


