%nproc=1
%NoSave
%Mem=1900MB
#P OB98/GEN NMR

erre ene a

0 1
  C     -297.205    -777.083    1417.319
  O     -297.172    -778.229    1418.178
  P     -297.805    -779.643    1417.762
  C     -295.488    -780.798    1417.620
  O     -296.807    -780.824    1418.179
  C     -294.419    -781.153    1418.663
  O     -294.346    -780.174    1419.675
  C     -294.662    -782.479    1419.383
  O     -294.333    -783.588    1418.526
  C     -293.738    -782.333    1420.592
  O     -292.383    -782.652    1420.256
  C     -293.882    -780.799    1420.889
  N     -294.787    -780.542    1422.014
  C     -294.202    -780.499    1423.279
  O     -292.983    -780.727    1423.410
  N     -295.007    -780.199    1424.359
  C     -296.292    -780.065    1424.219
  N     -297.021    -779.767    1425.318
  C     -296.953    -780.202    1422.899
  C     -296.145    -780.433    1421.859
  O     -298.261    -779.723    1416.325
  O     -299.057    -779.856    1418.757
  H     -292.399    -783.520    1419.811
  H     -299.756    -780.366    1418.304
  H     -298.049    -780.097    1422.822
  H     -296.563    -780.515    1420.863
  H     -292.898    -780.349    1421.119
  H     -294.037    -782.960    1421.426
  H     -295.709    -782.540    1419.700
  H     -293.450    -781.179    1418.119
  H     -296.538    -779.695    1426.191
  H     -295.299    -779.756    1417.241
  H     -298.016    -779.636    1425.297
  H     -295.460    -781.483    1416.762
  P     -295.366    -784.813    1418.417
  C     -295.293    -784.889    1415.832
  O     -295.007    -785.589    1417.057
  O     -296.795    -784.475    1418.593
  O     -294.849    -785.835    1419.546
  H     -295.614    -786.341    1419.872
  H     -294.685    -785.324    1415.030
  H     -295.075    -783.834    1415.922
  H     -296.353    -785.041    1415.582
  H     -296.725    -776.259    1417.805
  H     -298.222    -776.827    1417.104
  H     -296.693    -777.306    1416.406

 3  4  5  6  7  8  9  10  11  12  13  23  27  28  29  30  32 0
 6-311+G(2d,p)
 ****
 34  35 0
 6-311+G(2d,p)
 ****
 1  2  14  15  16  17  18  19  20  21  22  24  25  26 0
 3-21G
 ****
 31  33  36  37  38  39  40  41  42  43  44  45  46 0
 3-21G
 ****


