%nproc=1
%NoSave
%Mem=1900MB
#P OB98/GEN NMR

erre ene a

0 1
  C      698.085    -672.598    -638.821
  O      698.820    -673.672    -638.237
  P      698.025    -674.734    -637.322
  C      695.696    -675.492    -638.127
  O      697.110    -675.630    -638.286
  C      694.972    -676.796    -638.507
  O      695.211    -677.071    -639.927
  C      695.456    -678.045    -637.748
  O      694.804    -678.375    -636.532
  C      695.071    -679.164    -638.748
  O      693.690    -679.500    -638.588
  C      695.274    -678.508    -640.110
  N      697.502    -680.982    -644.015
  C      696.216    -680.808    -643.679
  N      695.704    -680.135    -642.625
  C      696.685    -679.605    -641.868
  C      698.046    -679.690    -642.101
  C      698.460    -680.428    -643.215
  N      699.781    -680.603    -643.578
  N      698.744    -679.016    -641.118
  C      697.809    -678.544    -640.309
  N      696.549    -678.855    -640.731
  O      697.347    -674.183    -636.126
  O      699.182    -675.753    -636.914
  H      693.473    -680.116    -639.322
  H      699.039    -676.046    -635.996
  H      695.481    -681.267    -644.346
  H      698.011    -677.974    -639.411
  H      694.493    -678.773    -640.822
  H      695.650    -680.070    -638.586
  H      696.539    -678.033    -637.626
  H      693.888    -676.664    -638.371
  H      695.338    -674.683    -638.765
  H      699.983    -681.191    -644.367
  H      700.502    -680.258    -642.948
  H      695.509    -675.199    -637.099
  P      695.284    -677.693    -635.139
  C      694.603    -675.416    -634.037
  O      694.257    -676.484    -634.887
  O      696.732    -677.313    -635.071
  O      694.842    -678.777    -634.058
  H      693.871    -678.865    -633.960
  H      693.881    -674.603    -634.170
  H      695.614    -675.034    -634.285
  H      694.597    -675.746    -632.985
  H      698.747    -671.984    -639.395
  H      697.635    -672.012    -638.047
  H      697.322    -672.993    -639.459

 3  4  5  6  7  8  9  10  11  12  22  25  29  30  31  32 0
 6-311+G(2d,p)
 ****
 33  36  37 0
 6-311+G(2d,p)
 ****
 1  2  13  14  15  16  17  18  19  20  21  23  24  26 0
 3-21G
 ****
 27  28  34  35  38  39  40  41  42  43  44  45  46  47  48 0
 3-21G
 ****


