%nproc=1
%NoSave
%Mem=1900MB
#P OB98/GEN NMR

erre ene a

0 1
  C     -266.760     340.784    -309.690
  O     -265.950     340.700    -310.854
  P     -264.383     340.367    -310.735
  C     -262.364     341.863    -310.178
  O     -263.727     341.561    -309.883
  C     -261.889     343.055    -309.350
  O     -262.514     344.262    -309.862
  C     -262.255     342.949    -307.868
  O     -261.190     343.518    -307.097
  C     -263.476     343.833    -307.717
  O     -263.600     344.330    -306.374
  C     -263.219     344.902    -308.785
  N     -267.309     347.819    -307.732
  C     -266.243     347.459    -306.980
  N     -265.210     346.661    -307.315
  C     -265.315     346.264    -308.594
  C     -266.331     346.559    -309.483
  C     -267.375     347.373    -309.008
  N     -268.452     347.752    -309.780
  N     -266.104     345.947    -310.701
  C     -264.963     345.319    -310.557
  N     -264.436     345.487    -309.303
  O     -263.700     340.079    -312.030
  O     -264.312     339.123    -309.734
  H     -263.655     343.549    -305.782
  H     -263.619     338.496    -310.022
  H     -266.230     347.860    -305.968
  H     -264.476     344.724    -311.310
  H     -262.580     345.709    -308.399
  H     -264.382     343.251    -307.947
  H     -262.440     341.914    -307.546
  H     -260.806     343.159    -309.478
  H     -262.289     342.108    -311.242
  H     -269.080     348.431    -309.393
  H     -268.412     347.563    -310.776
  H     -261.746     340.979    -309.980
  P     -261.060     342.976    -305.581
  C     -262.336     343.780    -303.453
  O     -262.375     343.518    -304.842
  O     -259.739     343.333    -304.973
  O     -261.301     341.410    -305.788
  H     -261.825     341.229    -306.603
  H     -263.331     344.097    -303.132
  H     -261.623     344.581    -303.240
  H     -262.048     342.880    -302.905
  H     -267.767     341.013    -309.972
  H     -266.385     341.555    -309.049
  H     -266.738     339.848    -309.172

 3  4  5  6  7  8  9  10  11  12  22  25  29  30  31  32 0
 6-311+G(2d,p)
 ****
 33  36  37 0
 6-311+G(2d,p)
 ****
 1  2  13  14  15  16  17  18  19  20  21  23  24  26 0
 3-21G
 ****
 27  28  34  35  38  39  40  41  42  43  44  45  46  47  48 0
 3-21G
 ****


