%nproc=1
%NoSave
%Mem=1900MB
#P OB98/GEN NMR

erre ene a

0 1
  C       21.101      20.331     -28.398
  O       21.857      20.690     -27.259
  P       21.566      22.065     -26.487
  C       22.939      23.773     -27.846
  O       22.891      22.952     -26.682
  C       24.321      24.407     -28.007
  O       24.613      25.272     -26.891
  C       25.463      23.403     -28.065
  O       25.526      22.791     -29.340
  C       26.653      24.292     -27.728
  O       27.117      25.001     -28.887
  C       26.045      25.269     -26.699
  N       26.406      24.930     -25.329
  C       27.752      25.106     -24.991
  O       28.561      25.493     -25.834
  N       28.158      24.790     -23.716
  C       27.299      24.319     -22.867
  N       27.764      24.015     -21.625
  C       25.878      24.089     -23.194
  C       25.505      24.411     -24.430
  O       21.094      21.919     -25.080
  O       20.505      22.797     -27.440
  H       27.924      25.479     -28.609
  H       19.611      22.382     -27.369
  H       25.203      23.683     -22.456
  H       24.481      24.272     -24.756
  H       26.383      26.295     -26.897
  H       27.500      23.716     -27.343
  H       25.335      22.650     -27.279
  H       24.309      25.020     -28.918
  H       28.751      24.158     -21.451
  H       22.190      24.562     -27.742
  H       27.191      23.609     -20.902
  H       22.685      23.170     -28.725
  P       25.475      21.197     -29.463
  C       27.732      20.676     -28.362
  O       26.982      20.665     -29.561
  O       24.542      20.664     -30.499
  O       25.021      20.725     -28.000
  H       24.340      20.032     -28.087
  H       28.586      20.003     -28.475
  H       27.126      20.341     -27.515
  H       28.100      21.687     -28.171
  H       21.442      19.387     -28.769
  H       21.222      21.077     -29.156
  H       20.067      20.257     -28.131

 3  4  5  6  7  8  9  10  11  12  13  23  27  28  29  30  32 0
 6-311+G(2d,p)
 ****
 34  35 0
 6-311+G(2d,p)
 ****
 1  2  14  15  16  17  18  19  20  21  22  24  25  26 0
 3-21G
 ****
 31  33  36  37  38  39  40  41  42  43  44  45  46 0
 3-21G
 ****


