%nproc=1
%NoSave
%Mem=1900MB
#P OB98/GEN NMR

erre ene a

0 1
  C      369.880    -158.583    -412.072
  O      368.761    -159.338    -412.492
  H      369.592    -157.884    -411.281
  H      370.633    -159.272    -411.679
  H      370.310    -158.036    -412.915
  P      367.488    -158.505    -413.008
  C      367.133    -157.747    -410.557
  O      366.548    -158.277    -411.731
  C      366.086    -157.633    -409.440
  O      364.976    -156.831    -409.880
  C      365.474    -158.964    -409.017
  O      366.355    -159.698    -408.144
  C      364.232    -158.482    -408.290
  O      364.582    -158.071    -406.944
  C      363.809    -157.277    -409.130
  N      358.716    -157.411    -409.798
  C      359.476    -157.067    -408.723
  N      360.819    -157.072    -408.622
  C      361.392    -157.453    -409.770
  C      360.751    -157.825    -410.934
  C      359.341    -157.798    -410.924
  N      358.556    -158.165    -412.002
  N      361.657    -158.138    -411.924
  C      362.837    -157.965    -411.362
  N      362.733    -157.552    -410.063
  O      366.683    -159.561    -413.891
  O      367.817    -157.277    -413.787
  H      364.961    -158.846    -406.504
  H      366.275    -159.099    -414.654
  H      358.935    -156.765    -407.839
  H      363.791    -158.112    -411.869
  H      363.511    -156.426    -408.494
  H      363.464    -159.249    -408.188
  H      365.182    -159.587    -409.896
  H      366.558    -157.123    -408.590
  H      367.539    -156.745    -410.767
  H      357.581    -157.938    -412.004
  H      359.041    -158.434    -412.860
  H      367.962    -158.393    -410.240
  P      366.859    -161.142    -408.638
  C      364.562    -162.168    -408.000
  O      365.968    -162.216    -407.828
  O      368.299    -161.246    -407.973
  O      366.911    -161.333    -410.120
  H      368.866    -161.882    -408.491
  H      364.104    -162.932    -407.407
  H      364.323    -162.325    -409.031
  H      364.197    -161.211    -407.691

 6  7  8  9  10  11  12  13  14  15  25  28  32  33  34  35 0
 6-311+G(2d,p)
 ****
 36  39  40 0
 6-311+G(2d,p)
 ****
 1  2  3  4  5  16  17  18  19  20  21  22  23  24 0
 3-21G
 ****
 26  27  29  30  31  37  38  41  42  43  44  45  46  47  48 0
 3-21G
 ****


