%nproc=1
%NoSave
%Mem=1900MB
#P OB98/GEN NMR

erre ene a

0 1
  C     -194.451     -62.723    -210.550
  O     -195.526     -63.648    -210.365
  P     -196.961     -63.025    -210.019
  C     -198.303     -64.714    -211.465
  O     -197.956     -63.356    -211.231
  C     -199.700     -64.801    -212.079
  O     -200.717     -64.348    -211.159
  C     -199.869     -63.937    -213.321
  O     -199.227     -64.523    -214.441
  C     -201.390     -63.877    -213.423
  O     -201.903     -65.083    -214.012
  C     -201.806     -63.805    -211.945
  N     -204.797     -59.715    -212.653
  C     -204.752     -60.918    -213.267
  N     -203.923     -61.954    -213.020
  C     -203.080     -61.661    -212.017
  C     -203.010     -60.481    -211.296
  C     -203.920     -59.470    -211.651
  N     -203.956     -58.240    -211.037
  N     -202.014     -60.550    -210.344
  C     -201.477     -61.742    -210.504
  N     -202.096     -62.456    -211.495
  O     -196.720     -61.448    -210.143
  O     -197.467     -63.400    -208.664
  H     -202.866     -64.961    -214.134
  H     -196.727     -61.038    -209.259
  H     -205.477     -61.069    -214.061
  H     -200.645     -62.131    -209.931
  H     -202.694     -64.411    -211.734
  H     -201.746     -63.039    -214.029
  H     -199.465     -62.934    -213.143
  H     -199.898     -65.853    -212.327
  H     -198.275     -65.278    -210.529
  H     -204.586     -57.545    -211.405
  H     -203.251     -58.016    -210.349
  H     -197.552     -65.161    -212.125
  P     -198.291     -63.582    -215.341
  C     -196.450     -65.157    -214.489
  O     -196.822     -63.813    -214.730
  O     -198.673     -62.131    -214.796
  O     -198.421     -63.785    -216.812
  H     -198.704     -62.106    -213.822
  H     -195.424     -65.172    -214.110
  H     -196.495     -65.735    -215.415
  H     -197.111     -65.599    -213.739
  H     -193.553     -63.260    -210.774
  H     -194.312     -62.154    -209.655
  H     -194.684     -62.063    -211.359

 3  4  5  6  7  8  9  10  11  12  22  25  29  30  31  32 0
 6-311+G(2d,p)
 ****
 33  36  37 0
 6-311+G(2d,p)
 ****
 1  2  13  14  15  16  17  18  19  20  21  23  24  26 0
 3-21G
 ****
 27  28  34  35  38  39  40  41  42  43  44  45  46  47  48 0
 3-21G
 ****


