%nproc=1
%NoSave
%Mem=1900MB
#P OB98/GEN NMR

erre ene a

0 1
  C     -409.194    -421.237      48.084
  O     -407.932    -420.752      48.498
  H     -409.836    -420.400      47.803
  H     -409.056    -421.881      47.212
  H     -409.665    -421.820      48.880
  P     -407.854    -420.034      49.928
  C     -405.571    -421.159      50.445
  O     -406.917    -420.961      50.849
  C     -405.304    -422.636      50.161
  O     -406.184    -423.068      49.078
  C     -403.858    -422.953      49.738
  O     -403.475    -424.195      50.330
  C     -403.960    -423.131      48.234
  O     -402.931    -423.963      47.710
  C     -405.364    -423.732      48.104
  N     -406.420    -426.153      43.759
  C     -406.177    -426.606      45.007
  N     -405.955    -425.882      46.124
  C     -406.073    -424.569      45.879
  C     -406.324    -423.956      44.659
  C     -406.487    -424.818      43.561
  N     -406.672    -424.362      42.262
  N     -406.314    -422.583      44.803
  C     -406.035    -422.371      46.069
  N     -405.880    -423.539      46.766
  O     -409.324    -420.283      50.522
  O     -407.501    -418.585      49.904
  H     -403.119    -424.889      47.961
  H     -409.918    -419.566      50.228
  H     -406.142    -427.687      45.124
  H     -405.903    -421.400      46.532
  H     -405.381    -424.807      48.318
  H     -403.904    -422.155      47.744
  H     -403.136    -422.171      50.017
  H     -405.581    -423.216      51.046
  H     -404.902    -420.826      51.248
  H     -406.666    -425.049      41.527
  H     -406.609    -423.367      42.089
  H     -405.368    -420.558      49.547
  P     -402.838    -424.150      51.803
  C     -404.360    -425.943      52.927
  O     -403.965    -424.578      52.860
  O     -402.659    -422.576      52.078
  O     -401.540    -424.880      51.931
  H     -401.880    -422.420      52.636
  H     -405.114    -426.060      53.677
  H     -403.513    -426.548      53.176
  H     -404.750    -426.248      51.978

 6  7  8  9  10  11  12  13  14  15  25  28  32  33  34  35 0
 6-311+G(2d,p)
 ****
 36  39  40 0
 6-311+G(2d,p)
 ****
 1  2  3  4  5  16  17  18  19  20  21  22  23  24 0
 3-21G
 ****
 26  27  29  30  31  37  38  41  42  43  44  45  46  47 0
 3-21G
 ****
 48 0
 3-21G
 ****


