%nproc=1
%NoSave
%Mem=1900MB
#P OB98/GEN NMR

erre ene a

0 1
  C      412.299    -664.871     594.822
  O      413.498    -664.186     595.199
  P      413.368    -662.606     595.474
  C      413.920    -661.626     593.131
  O      412.926    -661.888     594.105
  C      413.341    -661.509     591.722
  O      412.659    -660.225     591.560
  C      414.391    -661.600     590.608
  O      413.770    -662.240     589.486
  C      414.659    -660.152     590.262
  O      415.231    -660.032     588.951
  C      413.251    -659.555     590.418
  N      413.254    -658.092     590.592
  C      413.748    -657.333     589.531
  O      414.227    -657.887     588.529
  N      413.738    -655.971     589.639
  C      413.319    -655.409     590.732
  N      413.335    -654.051     590.782
  C      412.847    -656.184     591.901
  C      412.840    -657.511     591.760
  O      414.893    -662.144     595.668
  O      412.542    -662.273     596.666
  H      415.028    -659.126     588.607
  H      414.969    -661.609     596.477
  H      412.524    -655.674     592.806
  H      412.507    -658.160     592.567
  H      412.634    -659.783     589.536
  H      415.355    -659.713     590.986
  H      415.277    -662.162     590.897
  H      412.584    -662.284     591.596
  H      413.669    -653.560     589.954
  H      414.667    -662.435     593.137
  H      413.043    -653.519     591.573
  H      414.470    -660.724     593.417
  P      414.074    -663.793     589.226
  C      416.080    -663.077     587.783
  O      415.643    -663.849     588.892
  O      413.428    -664.006     587.768
  O      413.562    -664.792     590.198
  H      413.491    -664.941     587.519
  H      417.172    -663.096     587.747
  H      415.762    -662.043     587.881
  H      415.692    -663.508     586.852
  H      412.514    -665.908     594.668
  H      411.916    -664.448     593.917
  H      411.571    -664.769     595.599

 3  4  5  6  7  8  9  10  11  12  13  21  23  27  28  29  30  32 0
 6-311+G(2d,p)
 ****
 34  35 0
 6-311+G(2d,p)
 ****
 1  2  14  15  16  17  18  19  20  22  24  25  26 0
 3-21G
 ****
 31  33  36  37  38  39  40  41  42  43  44  45  46 0
 3-21G
 ****


