%nproc=1
%NoSave
%Mem=1900MB
#P OB98/GEN NMR

erre ene a

0 1
  C      769.916    -733.661    1001.560
  O      769.943    -734.926    1000.931
  H      769.057    -733.609    1002.236
  H      769.809    -732.871    1000.809
  H      770.827    -733.489    1002.143
  P      771.254    -735.287    1000.079
  C      770.486    -734.120     997.888
  O      771.405    -734.131     998.970
  C      770.768    -732.913     996.972
  O      770.414    -731.698     997.692
  C      772.249    -732.779     996.561
  O      772.288    -732.288     995.230
  C      772.778    -731.716     997.513
  O      773.930    -731.041     997.027
  C      771.550    -730.802     997.642
  N      771.601    -729.944     998.815
  C      772.240    -728.727     998.691
  O      772.715    -728.282     997.625
  N      772.364    -727.988     999.834
  C      771.929    -728.357    1001.082
  O      772.082    -727.674    1002.077
  C      771.257    -729.668    1001.166
  C      771.129    -730.397    1000.035
  O      770.776    -736.564     999.231
  O      772.492    -735.560    1000.868
  H      770.956    -737.385     999.724
  H      774.329    -730.567     997.787
  H      772.830    -727.102     999.753
  H      770.915    -730.004    1002.120
  H      770.653    -731.373    1000.070
  H      771.441    -730.177     996.732
  H      773.021    -732.171     998.481
  H      772.812    -733.715     996.640
  H      770.125    -732.985     996.105
  H      769.455    -734.028     998.293
  H      770.564    -735.059     997.322
  P      773.073    -733.181     994.142
  C      775.588    -732.421     994.151
  O      774.575    -733.294     994.670
  O      773.156    -732.146     992.895
  O      772.373    -734.467     993.837
  H      773.279    -731.230     993.197
  H      776.524    -732.643     994.619
  H      775.320    -731.405     994.352
  H      775.675    -732.564     993.094

 6  7  8  9  10  11  12  13  14  15  16  27  31  32  33  34  35 0
 6-311+G(2d,p)
 ****
 36  37 0
 6-311+G(2d,p)
 ****
 1  2  3  4  5  17  18  19  20  21  22  23  24  25 0
 3-21G
 ****
 26  28  29  30  38  39  40  41  42  43  44  45 0
 3-21G
 ****


