%nproc=1
%NoSave
%Mem=1900MB
#P OB98/GEN NMR

erre ene a

0 1
  C     -614.799    -497.914    -600.918
  O     -615.065    -496.938    -599.932
  H     -615.411    -498.797    -600.714
  H     -613.743    -498.203    -600.894
  H     -615.055    -497.527    -601.910
  P     -614.176    -495.599    -599.991
  C     -611.647    -495.162    -599.546
  O     -612.702    -496.109    -599.614
  C     -610.931    -495.265    -598.196
  O     -610.519    -496.633    -597.947
  C     -609.668    -494.435    -598.085
  O     -609.909    -493.052    -597.863
  C     -609.027    -495.095    -596.878
  O     -609.715    -494.684    -595.680
  C     -609.286    -496.586    -597.184
  N     -608.190    -497.211    -597.936
  C     -607.060    -497.595    -597.199
  O     -607.009    -497.404    -595.993
  N     -605.998    -498.158    -597.864
  C     -606.062    -498.347    -599.150
  N     -604.981    -498.902    -599.748
  C     -607.233    -497.967    -599.961
  C     -608.247    -497.422    -599.297
  O     -614.626    -494.802    -598.676
  O     -614.265    -494.809    -601.256
  H     -609.412    -495.285    -594.974
  H     -614.030    -494.024    -598.541
  H     -607.237    -498.138    -601.027
  H     -609.147    -497.116    -599.832
  H     -609.446    -497.153    -596.264
  H     -607.973    -494.831    -596.747
  H     -609.009    -494.578    -598.955
  H     -611.659    -494.997    -597.414
  H     -604.166    -499.095    -599.178
  H     -612.072    -494.159    -599.658
  H     -604.873    -498.951    -600.758
  H     -610.928    -495.342    -600.349
  P     -608.792    -492.017    -598.371
  C     -606.209    -492.199    -598.552
  O     -607.384    -492.560    -597.839
  O     -609.065    -490.728    -597.461
  O     -608.849    -491.696    -599.832
  H     -608.876    -489.903    -597.963
  H     -605.355    -492.635    -598.077
  H     -606.108    -491.134    -598.558
  H     -606.279    -492.556    -599.558

 6  7  8  9  10  11  12  13  14  15  16  26  30  31  32  33  35 0
 6-311+G(2d,p)
 ****
 37  38 0
 6-311+G(2d,p)
 ****
 1  2  3  4  5  17  18  19  20  21  22  23  24  25 0
 3-21G
 ****
 27  28  29  34  36  39  40  41  42  43  44  45  46 0
 3-21G
 ****


