%nproc=1
%NoSave
%Mem=1900MB
#P OB98/GEN NMR

erre ene a

0 1
  C       12.950     -92.482      48.700
  O       13.036     -92.164      50.077
  H       11.898     -92.472      48.404
  H       13.359     -93.479      48.519
  H       13.492     -91.740      48.109
  P       14.511     -92.102      50.706
  C       14.852     -94.664      50.858
  O       14.630     -93.451      51.566
  C       14.201     -95.834      51.590
  O       14.254     -97.026      50.785
  C       14.866     -96.197      52.911
  O       14.436     -95.331      53.948
  C       14.350     -97.614      53.110
  O       13.004     -97.573      53.627
  C       14.340     -98.172      51.675
  N       16.381    -101.263      48.121
  C       15.136    -100.760      48.266
  N       14.654     -99.981      49.256
  C       15.605     -99.726      50.168
  C       16.919    -100.170      50.155
  C       17.305    -100.967      49.063
  N       18.580    -101.470      48.915
  N       17.603     -99.708      51.260
  C       16.733     -98.956      51.901
  N       15.498     -98.963      51.300
  O       14.863     -90.836      51.406
  O       15.404     -92.438      49.418
  H       13.002     -96.965      54.390
  H       14.974     -93.118      48.872
  H       14.433    -101.016      47.478
  H       16.948     -98.374      52.789
  H       13.462     -98.800      51.489
  H       14.949     -98.179      53.826
  H       15.956     -96.224      52.817
  H       13.142     -95.590      51.739
  H       15.926     -94.847      50.743
  H       18.724    -102.167      48.202
  H       19.229    -101.352      49.680
  H       14.412     -94.548      49.863
  P       15.477     -94.356      54.682
  C       16.346     -96.156      56.298
  O       15.656     -94.918      56.175
  O       15.146     -92.905      54.602
  O       16.885     -94.683      54.001
  H       17.406     -93.865      53.889
  H       16.405     -96.430      57.331
  H       17.334     -96.055      55.899
  H       15.818     -96.914      55.757

 6  7  8  9  10  11  12  13  14  15  25  28  32  33  34  35 0
 6-311+G(2d,p)
 ****
 36  39  40 0
 6-311+G(2d,p)
 ****
 1  2  3  4  5  16  17  18  19  20  21  22  23  24 0
 3-21G
 ****
 26  27  29  30  31  37  38  41  42  43  44  45  46  47 0
 3-21G
 ****
 48 0
 3-21G
 ****


