%nproc=1
%NoSave
%Mem=1900MB
#P OB98/GEN NMR

erre ene a

0 1
  C     -232.636    -139.958     780.209
  O     -232.885    -139.923     778.819
  H     -231.641    -140.370     780.383
  H     -233.372    -140.589     780.721
  H     -232.674    -138.948     780.625
  P     -234.343    -139.497     778.315
  C     -233.992    -141.335     776.513
  O     -234.883    -140.740     777.455
  C     -234.638    -142.552     775.869
  O     -234.704    -143.650     776.811
  C     -236.071    -142.302     775.413
  O     -236.101    -141.537     774.227
  C     -236.592    -143.719     775.299
  O     -236.165    -144.331     774.074
  C     -235.906    -144.411     776.517
  N     -236.767    -144.489     777.676
  C     -236.339    -145.344     778.708
  O     -235.291    -145.964     778.597
  N     -237.137    -145.475     779.823
  C     -238.251    -144.815     779.916
  N     -238.990    -145.002     781.043
  C     -238.745    -143.901     778.868
  C     -237.968    -143.798     777.788
  O     -234.461    -138.171     777.622
  O     -235.236    -139.566     779.648
  H     -236.656    -143.871     773.356
  H     -235.226    -138.699     780.115
  H     -239.669    -143.370     778.987
  H     -238.243    -143.136     776.974
  H     -235.580    -145.423     776.250
  H     -237.688    -143.761     775.337
  H     -236.632    -141.798     776.218
  H     -234.008    -142.874     775.021
  H     -238.628    -145.653     781.742
  H     -233.089    -141.630     777.074
  H     -239.829    -144.472     781.268
  H     -233.697    -140.609     775.743
  P     -236.567    -139.996     774.250
  C     -236.464    -140.036     771.661
  O     -237.262    -139.747     772.814
  O     -235.510    -139.013     774.637
  O     -237.820    -140.017     775.251
  H     -237.530    -140.108     776.195
  H     -237.030    -139.833     770.776
  H     -236.179    -141.067     771.674
  H     -235.587    -139.424     771.672

 6  7  8  9  10  11  12  13  14  15  16  26  30  31  32  33  35 0
 6-311+G(2d,p)
 ****
 37  38 0
 6-311+G(2d,p)
 ****
 1  2  3  4  5  17  18  19  20  21  22  23  24  25 0
 3-21G
 ****
 27  28  29  34  36  39  40  41  42  43  44  45  46 0
 3-21G
 ****


