%nproc=1
%NoSave
%Mem=1900MB
#P OB98/GEN NMR

erre ene a

0 1
  C      376.916    -244.467    -136.769
  O      376.723    -244.431    -138.171
  P      375.966    -243.192    -138.845
  C      377.879    -241.849    -139.986
  O      377.007    -241.973    -138.885
  C      377.540    -240.611    -140.826
  O      378.568    -240.457    -141.834
  C      376.221    -240.698    -141.590
  O      375.827    -239.378    -141.973
  C      376.623    -241.482    -142.817
  O      375.701    -241.316    -143.892
  C      378.060    -240.966    -143.092
  N      378.932    -242.034    -143.602
  C      378.687    -242.481    -144.895
  O      377.834    -241.979    -145.629
  N      379.388    -243.597    -145.285
  C      380.258    -244.297    -144.503
  O      380.635    -245.435    -144.750
  C      380.651    -243.636    -143.250
  C      379.961    -242.566    -142.850
  O      374.915    -242.762    -137.717
  O      375.293    -243.493    -140.140
  H      375.973    -241.943    -144.602
  H      374.044    -243.159    -137.897
  H      379.103    -244.008    -146.166
  H      381.449    -244.082    -142.669
  H      380.199    -242.089    -141.899
  H      378.057    -240.147    -143.823
  H      376.653    -242.550    -142.569
  H      375.415    -241.188    -141.039
  H      377.555    -239.717    -140.185
  H      377.826    -242.754    -140.596
  H      378.919    -241.768    -139.640
  P      374.256    -239.061    -142.064
  C      374.640    -237.602    -139.985
  O      373.810    -238.561    -140.609
  O      373.411    -240.134    -142.665
  O      374.213    -237.712    -142.931
  H      373.318    -237.589    -143.303
  H      374.029    -236.988    -139.323
  H      375.132    -236.956    -140.723
  H      375.403    -238.116    -139.395
  H      377.436    -245.364    -136.503
  H      375.966    -244.447    -136.278
  H      377.492    -243.617    -136.466

 3  4  5  6  7  8  9  10  11  12  13  23  28  29  30  31  32 0
 6-311+G(2d,p)
 ****
 33  34 0
 6-311+G(2d,p)
 ****
 1  2  14  15  16  17  18  19  20  21  22  24  25  26  27 0
 3-21G
 ****
 35  36  37  38  39  40  41  42  43  44  45 0
 3-21G
 ****


