%nproc=1
%NoSave
%Mem=1900MB
#P OB98/GEN NMR

erre ene a

0 1
  C      -75.844    -670.125     345.686
  O      -75.250    -669.022     345.031
  P      -75.933    -667.569     345.062
  C      -74.453    -666.991     343.044
  O      -75.767    -666.995     343.571
  C      -74.480    -666.651     341.546
  O      -75.065    -667.771     340.843
  C      -75.338    -665.442     341.164
  O      -74.667    -664.185     341.292
  C      -75.580    -665.725     339.690
  O      -74.410    -665.373     338.918
  C      -75.774    -667.247     339.685
  N      -80.307    -667.000     337.332
  C      -79.082    -666.549     336.980
  N      -77.924    -666.628     337.681
  C      -78.116    -667.316     338.812
  C      -79.295    -667.844     339.296
  C      -80.443    -667.669     338.502
  N      -81.688    -668.164     338.838
  N      -79.094    -668.459     340.520
  C      -77.807    -668.314     340.757
  N      -77.169    -667.631     339.753
  O      -75.449    -666.676     346.159
  O      -77.494    -667.874     345.156
  H      -74.135    -664.485     339.220
  H      -77.976    -667.074     345.446
  H      -79.023    -666.019     336.034
  H      -77.294    -668.676     341.634
  H      -75.332    -667.724     338.795
  H      -76.421    -665.150     339.284
  H      -76.294    -665.438     341.698
  H      -73.447    -666.528     341.203
  H      -74.021    -667.997     343.175
  H      -82.412    -668.097     338.149
  H      -81.746    -668.795     339.629
  H      -73.825    -666.280     343.597
  P      -75.277    -663.143     342.357
  C      -73.903    -661.056     341.600
  O      -75.151    -661.704     341.665
  O      -74.706    -663.253     343.734
  O      -76.859    -663.457     342.290
  H      -77.282    -663.220     341.455
  H      -73.991    -660.170     340.946
  H      -73.139    -661.711     341.176
  H      -73.598    -660.721     342.588
  H      -75.235    -670.994     345.545
  H      -76.817    -670.301     345.277
  H      -75.930    -669.915     346.732

 3  4  5  6  7  8  9  10  11  12  22  25  29  30  31  32 0
 6-311+G(2d,p)
 ****
 33  36  37 0
 6-311+G(2d,p)
 ****
 1  2  13  14  15  16  17  18  19  20  21  23  24  26 0
 3-21G
 ****
 27  28  34  35  38  39  40  41  42  43  44  45  46  47  48 0
 3-21G
 ****


