%nproc=1
%NoSave
%Mem=1900MB
#P OB98/GEN NMR

erre ene a

0 1
  C      211.346     137.062     283.564
  O      211.479     136.831     284.958
  P      211.068     138.030     285.949
  C      208.870     136.922     286.777
  O      209.469     137.995     286.060
  C      207.408     137.225     287.123
  O      206.856     136.103     287.853
  C      207.221     138.483     287.973
  O      206.019     139.126     287.538
  C      207.012     137.937     289.372
  O      206.287     138.851     290.194
  C      206.285     136.619     289.072
  N      206.407     135.661     290.167
  C      205.498     135.783     291.224
  O      204.696     136.718     291.236
  N      205.554     134.882     292.255
  C      206.503     134.000     292.285
  N      206.515     133.126     293.328
  C      207.556     133.914     291.253
  C      207.438     134.750     290.226
  O      211.348     139.335     285.069
  O      211.811     138.045     287.245
  H      206.193     138.455     291.086
  H      211.629     140.082     285.633
  H      208.347     133.181     291.347
  H      208.148     134.739     289.410
  H      205.217     136.798     288.887
  H      207.981     137.742     289.846
  H      208.059     139.181     287.893
  H      206.849     137.314     286.185
  H      205.792     133.216     294.031
  H      209.420     136.766     287.715
  H      207.216     132.407     293.436
  H      208.945     136.001     286.185
  P      206.007     140.728     287.498
  C      206.790     140.564     285.059
  O      207.040     141.122     286.336
  O      206.854     141.089     288.812
  O      204.689     141.426     287.495
  H      206.867     142.053     288.940
  H      207.479     141.017     284.339
  H      205.765     140.775     284.740
  H      206.967     139.486     285.081
  H      211.652     136.188     283.027
  H      211.962     137.889     283.279
  H      210.324     137.282     283.335

 3  4  5  6  7  8  9  10  11  12  13  21  23  27  28  29  30  32 0
 6-311+G(2d,p)
 ****
 34  35 0
 6-311+G(2d,p)
 ****
 1  2  14  15  16  17  18  19  20  22  24  25  26 0
 3-21G
 ****
 31  33  36  37  38  39  40  41  42  43  44  45  46 0
 3-21G
 ****


