%nproc=1
%NoSave
%Mem=1900MB
#P OB98/GEN NMR

erre ene a

0 1
  C      -24.950      31.905    -240.996
  O      -25.376      32.253    -242.300
  H      -24.023      31.329    -241.071
  H      -25.700      31.288    -240.492
  H      -24.758      32.806    -240.408
  P      -26.800      32.971    -242.465
  C      -28.656      31.490    -243.496
  O      -27.888      31.801    -242.338
  C      -27.824      30.656    -244.466
  O      -27.263      29.514    -243.789
  C      -28.638      30.095    -245.623
  O      -28.914      31.098    -246.582
  C      -27.732      28.974    -246.092
  O      -26.666      29.471    -246.911
  C      -27.190      28.433    -244.749
  N      -27.920      27.261    -244.276
  C      -27.340      26.018    -244.562
  O      -26.273      25.955    -245.171
  N      -28.000      24.883    -244.163
  C      -29.124      24.975    -243.526
  N      -29.727      23.812    -243.162
  C      -29.763      26.263    -243.194
  C      -29.115      27.354    -243.597
  O      -26.978      33.852    -243.664
  O      -26.974      33.781    -241.095
  H      -27.098      29.890    -247.683
  H      -26.600      34.677    -241.178
  H      -30.698      26.292    -242.655
  H      -29.514      28.341    -243.392
  H      -26.131      28.162    -244.841
  H      -28.280      28.232    -246.675
  H      -29.565      29.648    -245.251
  H      -26.995      31.275    -244.829
  H      -29.258      22.948    -243.421
  H      -28.941      32.439    -243.961
  H      -30.556      23.759    -242.589
  H      -29.569      30.950    -243.219
  P      -30.242      31.028    -247.476
  C      -29.895      30.212    -249.899
  O      -29.986      29.838    -248.526
  O      -30.679      32.324    -248.071
  O      -31.321      30.391    -246.476
  H      -31.618      31.049    -245.799
  H      -29.725      29.340    -250.496
  H      -29.083      30.897    -250.029
  H      -30.808      30.679    -250.203

 6  7  8  9  10  11  12  13  14  15  16  26  30  31  32  33  35 0
 6-311+G(2d,p)
 ****
 37  38 0
 6-311+G(2d,p)
 ****
 1  2  3  4  5  17  18  19  20  21  22  23  24  25 0
 3-21G
 ****
 27  28  29  34  36  39  40  41  42  43  44  45  46 0
 3-21G
 ****


