%nproc=1
%NoSave
%Mem=1900MB
#P OB98/GEN NMR

erre ene a

0 1
  C      -84.302    -589.777    -279.508
  O      -84.311    -590.303    -280.823
  P      -83.095    -589.890    -281.800
  C      -82.272    -592.307    -282.293
  O      -82.003    -591.055    -281.677
  C      -81.400    -593.403    -281.678
  O      -81.847    -593.701    -280.342
  C      -81.443    -594.734    -282.422
  O      -80.588    -594.747    -283.551
  C      -80.920    -595.687    -281.353
  O      -79.492    -595.615    -281.291
  C      -81.552    -595.093    -280.082
  N      -83.636    -599.623    -279.148
  C      -82.308    -599.283    -279.349
  N      -81.422    -600.303    -279.365
  N      -81.896    -598.064    -279.517
  C      -82.891    -597.138    -279.507
  C      -84.242    -597.358    -279.312
  C      -84.692    -598.729    -279.128
  O      -85.856    -599.083    -279.012
  N      -84.942    -596.187    -279.344
  C      -84.024    -595.254    -279.539
  N      -82.770    -595.791    -279.686
  O      -82.409    -588.660    -281.043
  O      -83.514    -589.539    -283.191
  H      -79.170    -595.526    -282.212
  H      -81.844    -588.156    -281.662
  H      -83.907    -600.590    -279.037
  H      -84.219    -594.188    -279.602
  H      -80.863    -595.136    -279.222
  H      -81.188    -596.726    -281.558
  H      -81.689    -601.279    -279.304
  H      -82.467    -595.009    -282.693
  H      -80.451    -600.096    -279.575
  H      -80.372    -593.032    -281.622
  H      -82.048    -592.236    -283.374
  H      -83.330    -592.565    -282.174
  P      -81.290    -594.905    -284.997
  C      -79.763    -593.416    -286.476
  O      -80.982    -593.525    -285.768
  O      -82.855    -594.804    -284.656
  O      -80.945    -596.158    -285.727
  H      -83.389    -595.280    -285.324
  H      -79.829    -592.535    -287.145
  H      -79.568    -594.294    -287.084
  H      -78.926    -593.242    -285.775
  H      -85.160    -590.131    -278.976
  H      -84.325    -588.708    -279.551
  H      -83.414    -590.094    -279.003

 3  4  5  6  7  8  9  10  11  12  23  26  30  31 0
 6-311+G(2d,p)
 ****
 33  35  36  37  38 0
 6-311+G(2d,p)
 ****
 1  2  13  14  15  16  17  18  19  20  21  22  24  25 0
 3-21G
 ****
 27  28  29  32  34  39  40  41  42  43  44  45  46  47  48  49 0
 3-21G
 ****


