%nproc=1
%NoSave
%Mem=1900MB
#P OB98/GEN NMR

erre ene a

0 1
  C     -210.510     705.486    -166.764
  O     -210.402     704.120    -166.427
  H     -210.409     706.086    -165.854
  H     -211.489     705.686    -167.205
  H     -209.719     705.779    -167.464
  P     -210.357     703.061    -167.629
  C     -211.890     701.029    -167.095
  O     -210.592     701.617    -166.975
  C     -212.122     700.024    -165.965
  O     -211.058     699.034    -165.990
  C     -212.139     700.659    -164.567
  O     -213.138     699.993    -163.778
  C     -210.771     700.336    -164.005
  O     -210.738     700.313    -162.570
  C     -210.467     698.984    -164.677
  N     -209.028     698.732    -164.731
  C     -208.414     698.349    -163.536
  O     -209.073     698.256    -162.496
  N     -207.059     698.140    -163.534
  C     -206.356     698.369    -164.604
  N     -205.016     698.180    -164.523
  C     -206.967     698.836    -165.874
  C     -208.291     698.991    -165.862
  O     -208.810     703.026    -168.039
  O     -211.247     703.373    -168.789
  H     -211.372     699.623    -162.265
  H     -208.699     702.846    -168.996
  H     -206.344     699.050    -166.733
  H     -208.826     699.332    -166.749
  H     -210.946     698.168    -164.117
  H     -210.045     701.093    -164.350
  H     -212.342     701.731    -164.584
  H     -213.068     699.490    -166.166
  H     -204.633     697.866    -163.640
  H     -211.944     700.507    -168.051
  H     -204.372     698.374    -165.290
  H     -212.644     701.819    -167.074
  P     -214.212     700.943    -163.045
  C     -214.695     699.449    -160.968
  O     -215.181     700.006    -162.181
  O     -215.131     701.464    -164.247
  O     -213.595     702.072    -162.287
  H     -214.952     702.411    -164.416
  H     -215.461     698.853    -160.517
  H     -214.417     700.237    -160.300
  H     -213.841     698.837    -161.173

 6  7  8  9  10  11  12  13  14  15  16  26  30  31  32  33  35 0
 6-311+G(2d,p)
 ****
 37  38 0
 6-311+G(2d,p)
 ****
 1  2  3  4  5  17  18  19  20  21  22  23  24  25 0
 3-21G
 ****
 27  28  29  34  36  39  40  41  42  43  44  45  46 0
 3-21G
 ****


