%nproc=1
%NoSave
%Mem=1900MB
#P OB98/GEN NMR

erre ene a

0 1
  C       64.719    -426.739    -348.916
  O       65.292    -425.517    -348.501
  H       65.346    -427.175    -349.699
  H       63.719    -426.567    -349.323
  H       64.665    -427.438    -348.078
  P       64.541    -424.733    -347.319
  C       65.324    -425.921    -345.141
  O       64.320    -425.803    -346.142
  C       64.750    -425.517    -343.785
  O       64.426    -424.109    -343.800
  C       63.453    -426.232    -343.419
  O       63.688    -427.541    -342.930
  C       62.881    -425.285    -342.370
  O       63.448    -425.528    -341.076
  C       63.324    -423.911    -342.887
  N       60.403    -419.738    -342.729
  C       61.443    -420.141    -341.968
  N       62.183    -421.263    -342.088
  C       61.759    -422.000    -343.130
  C       60.710    -421.719    -343.988
  C       60.013    -420.523    -343.759
  N       58.932    -420.129    -344.512
  N       60.550    -422.739    -344.905
  C       61.494    -423.613    -344.613
  N       62.249    -423.204    -343.551
  O       63.070    -424.513    -347.914
  O       65.175    -423.450    -346.903
  H       63.028    -424.893    -340.463
  H       63.014    -423.633    -348.328
  H       61.712    -419.478    -341.151
  H       61.658    -424.551    -345.130
  H       63.687    -423.263    -342.080
  H       61.801    -425.402    -342.278
  H       62.776    -426.256    -344.281
  H       65.515    -425.684    -343.020
  H       66.161    -425.260    -345.389
  H       65.681    -426.956    -345.117
  H       58.465    -419.269    -344.276
  H       58.568    -420.759    -345.214
  P       62.762    -428.733    -343.459
  C       64.033    -429.824    -345.446
  O       63.035    -428.902    -345.031
  O       61.287    -428.106    -343.397
  O       62.861    -429.997    -342.674
  H       60.820    -428.414    -342.599
  H       64.097    -429.824    -346.514
  H       63.776    -430.805    -345.104
  H       64.977    -429.538    -345.032

 6  7  8  9  10  11  12  13  14  15  25  28  32  33  34  35 0
 6-311+G(2d,p)
 ****
 36  37  40 0
 6-311+G(2d,p)
 ****
 1  2  3  4  5  16  17  18  19  20  21  22  23  24 0
 3-21G
 ****
 26  27  29  30  31  38  39 41  42  43  44  45  46  47  48 0
 3-21G
 ****


