%nproc=1
%NoSave
%Mem=1900MB
#P OB98/GEN NMR

erre ene a

0 1
  C      114.478    1215.608    -223.790
  O      115.242    1215.268    -222.647
  H      115.152    1215.748    -224.635
  H      113.944    1216.551    -223.609
  H      113.766    1214.818    -224.030
  P      114.422    1214.839    -221.336
  C      115.621    1212.506    -221.238
  O      115.323    1213.727    -220.600
  C      117.053    1212.067    -220.900
  O      117.973    1212.729    -221.805
  C      117.479    1212.377    -219.463
  O      118.324    1211.329    -218.994
  C      118.294    1213.647    -219.610
  O      119.209    1213.828    -218.529
  C      118.950    1213.428    -220.988
  N      119.382    1214.671    -221.624
  C      120.667    1215.127    -221.295
  O      121.371    1214.487    -220.511
  N      121.107    1216.314    -221.830
  C      120.323    1217.019    -222.566
  N      120.806    1218.187    -223.068
  C      118.934    1216.601    -222.911
  C      118.541    1215.432    -222.406
  O      113.215    1213.996    -221.962
  O      113.996    1215.990    -220.477
  H      119.696    1212.981    -218.408
  H      113.496    1213.369    -222.641
  H      118.298    1217.229    -223.522
  H      117.554    1215.033    -222.595
  H      119.818    1212.763    -220.888
  H      117.628    1214.517    -219.656
  H      116.624    1212.493    -218.803
  H      117.133    1210.978    -221.106
  H      121.747    1218.450    -222.794
  H      115.522    1212.602    -222.327
  H      120.265    1218.842    -223.605
  H      114.902    1211.751    -220.893
  P      118.670    1211.207    -217.443
  C      117.381    1209.060    -216.796
  O      118.653    1209.658    -216.997
  O      117.896    1212.140    -216.556
  O      120.233    1211.569    -217.403
  H      120.385    1212.140    -216.624
  H      117.509    1208.038    -216.505
  H      116.819    1209.104    -217.705
  H      116.857    1209.587    -216.026

 6  7  8  9  10  11  12  13  14  15  16  26  30  31  32  33  35 0
 6-311+G(2d,p)
 ****
 37  38 0
 6-311+G(2d,p)
 ****
 1  2  3  4  5  17  18  19  20  21  22  23  24  25 0
 3-21G
 ****
 27  28  29  34  36  39  40  41  42  43  44  45  46 0
 3-21G
 ****


