%nproc=1
%NoSave
%Mem=1900MB
#P OB98/GEN NMR

erre ene a

0 1
  C        0.625      15.206      11.142
  O       -0.494      15.140      10.286
  H        1.527      15.026      10.551
  H        0.547      14.430      11.909
  H        0.707      16.186      11.619
  P       -1.874      15.786      10.772
  C       -2.701      18.141      11.425
  O       -1.575      17.297      11.225
  C       -2.367      19.337      12.316
  O       -1.995      18.887      13.637
  C       -1.175      20.138      11.791
  O       -1.481      21.100      10.798
  C       -0.665      20.807      13.063
  O       -1.378      22.029      13.321
  C       -0.975      19.767      14.142
  N        3.336      19.607      16.875
  C        2.458      20.658      16.698
  N        2.805      21.829      17.275
  N        1.356      20.566      16.003
  C        1.189      19.363      15.406
  C        1.996      18.252      15.496
  C        3.188      18.347      16.314
  O        4.002      17.448      16.498
  N        1.501      17.208      14.753
  C        0.440      17.711      14.156
  N        0.194      19.007      14.541
  O       -2.159      15.057      12.172
  O       -3.028      15.615       9.832
  H       -1.028      22.421      14.141
  H       -3.116      15.046      12.352
  H        4.156      19.726      17.444
  H       -0.197      17.175      13.461
  H       -1.379      20.237      15.047
  H        0.394      21.070      12.985
  H        3.698      21.979      17.720
  H       -0.396      19.463      11.422
  H        2.336      22.677      16.952
  H       -3.259      19.965      12.427
  H       -3.473      17.529      11.896
  H       -3.097      18.479      10.464
  P       -0.331      21.641       9.826
  C        0.919      20.544       7.824
  O        0.280      20.367       9.070
  O        0.824      22.069      10.847
  O       -0.735      22.769       8.941
  H        0.776      23.026      11.027
  H        1.265      19.598       7.463
  H        1.750      21.207       7.941
  H        0.226      20.961       7.124

 6  7  8  9  10  11  12  13  14  15  26  29  33  34 0
 6-311+G(2d,p)
 ****
 36  38  39  40  41 0
 6-311+G(2d,p)
 ****
 1  2  3  4  5  16  17  18  19  20  21  22  23  24  25 0
 3-21G
 ****
 27  28  30  31  32  35  37  42  43  44  45  46  47 0
 3-21G
 ****
 48  49 0
 3-21G
 ****


