%nproc=1
%NoSave
%Mem=1900MB
#P OB98/GEN NMR

erre ene a

0 1
  C      -25.097     391.859    -325.603
  O      -26.389     392.178    -325.138
  H      -24.990     392.240    -326.623
  H      -24.965     390.771    -325.611
  H      -24.326     392.317    -324.975
  P      -26.693     392.064    -323.569
  C      -29.254     391.713    -323.570
  O      -28.187     392.617    -323.334
  C      -30.611     392.429    -323.525
  O      -30.672     393.261    -322.338
  C      -30.756     393.360    -324.733
  O      -32.121     393.540    -325.106
  C      -30.216     394.684    -324.209
  O      -30.680     395.812    -324.949
  C      -30.691     394.638    -322.758
  N      -30.544     398.479    -319.411
  C      -31.578     398.064    -320.221
  N      -32.721     398.785    -320.145
  N      -31.500     397.051    -321.045
  C      -30.273     396.473    -321.068
  C      -29.162     396.804    -320.330
  C      -29.273     397.907    -319.397
  O      -28.382     398.332    -318.664
  N      -28.090     396.007    -320.644
  C      -28.549     395.195    -321.573
  N      -29.877     395.430    -321.855
  O      -25.789     393.219    -322.920
  O      -26.409     390.730    -322.945
  H      -30.518     395.632    -325.885
  H      -25.591     393.011    -321.992
  H      -30.662     399.254    -318.779
  H      -27.978     394.418    -322.061
  H      -31.723     395.007    -322.676
  H      -29.123     394.662    -324.305
  H      -32.775     399.673    -319.662
  H      -30.194     393.005    -325.595
  H      -33.377     398.685    -320.921
  H      -31.421     391.703    -323.446
  H      -29.202     390.945    -322.788
  H      -29.118     391.207    -324.529
  P      -32.703     392.569    -326.243
  C      -32.371     394.321    -328.169
  O      -33.255     393.492    -327.434
  O      -34.030     391.961    -325.577
  O      -31.758     391.507    -326.676
  H      -33.871     391.032    -325.316
  H      -32.921     394.856    -328.915
  H      -31.625     393.717    -328.641
  H      -31.900     395.016    -327.506

 6  7  8  9  10  11  12  13  14  15  26  29  33  34 0
 6-311+G(2d,p)
 ****
 36  38  39  40  41 0
 6-311+G(2d,p)
 ****
 1  2  3  4  5  16  17  18  19  20  21  22  23  24  25 0
 3-21G
 ****
 27  28  30  31  32  35  37  42  43  44  45  46  47 0
 3-21G
 ****
 48  49 0
 3-21G
 ****


