%nproc=1
%NoSave
%Mem=1900MB
#P OB98/GEN NMR

erre ene a

0 1
  C      403.018     963.705     684.061
  O      402.930     964.752     683.097
  P      401.479     965.093     682.507
  C      401.109     966.427     684.701
  O      400.575     965.487     683.777
  C      399.999     967.190     685.400
  O      399.453     968.184     684.502
  C      398.811     966.339     685.832
  O      399.052     965.659     687.053
  C      397.727     967.399     685.994
  O      397.859     968.024     687.281
  C      398.066     968.395     684.867
  N      394.915     970.740     681.674
  C      395.590     971.237     682.779
  N      395.417     972.539     683.046
  N      396.361     970.504     683.543
  C      396.464     969.218     683.124
  C      395.846     968.613     682.057
  C      394.956     969.416     681.244
  O      394.281     969.016     680.296
  N      396.210     967.297     681.946
  C      397.078     967.110     682.923
  N      397.242     968.249     683.681
  O      400.909     963.671     682.082
  O      401.476     966.058     681.366
  H      398.797     968.260     687.391
  H      400.245     963.762     681.374
  H      394.348     971.346     681.105
  H      397.597     966.181     683.112
  H      397.982     969.435     685.227
  H      396.714     966.985     685.940
  H      394.936     973.179     682.430
  H      398.525     965.642     685.033
  H      395.935     972.940     683.825
  H      400.420     967.714     686.264
  H      401.753     967.144     684.176
  H      401.722     965.884     685.448
  P      398.090     964.416     687.386
  C      399.585     962.620     686.239
  O      398.363     963.346     686.218
  O      396.627     964.982     687.058
  O      398.191     963.918     688.779
  H      395.952     964.503     687.577
  H      399.906     962.391     687.256
  H      400.368     963.224     685.726
  H      399.450     961.695     685.685
  H      404.037     963.586     684.366
  H      402.666     962.792     683.629
  H      402.417     963.952     684.911

 3  4  5  6  7  8  9  10  11  12  23  26  30  31  33  0
 6-311+G(2d,p)
 ****
 35  36  37  38 0
 6-311+G(2d,p)
 ****
 1  2  13  14  15  16  17  18  19  20  21  22  24  25  27  28  29 0
 3-21G
 ****
 32  34  39  40  41  42  43  44  45  46  47  48  49 0
 3-21G
 ****


