%nproc=1
%NoSave
%Mem=1900MB
#P OB98/GEN NMR

erre ene a

0 1
  C      153.737    -276.830     155.578
  O      153.657    -278.171     155.102
  P      154.486    -278.537     153.779
  C      152.987    -280.287     152.555
  O      154.139    -280.046     153.359
  C      152.655    -281.782     152.546
  O      153.706    -282.548     151.928
  C      152.496    -282.371     153.939
  O      151.235    -282.035     154.489
  C      152.678    -283.863     153.675
  O      151.434    -284.509     153.382
  C      153.617    -283.887     152.446
  N      154.932    -284.422     152.754
  C      154.962    -285.460     153.701
  O      153.927    -285.841     154.235
  N      156.180    -286.007     154.031
  C      157.264    -285.550     153.487
  N      158.439    -286.131     153.856
  C      157.276    -284.440     152.503
  C      156.091    -283.931     152.195
  O      155.995    -278.639     154.306
  O      154.352    -277.529     152.681
  H      151.657    -285.453     153.202
  H      156.619    -278.347     153.611
  H      158.204    -284.090     152.082
  H      155.999    -283.117     151.482
  H      153.178    -284.503     151.648
  H      153.098    -284.371     154.549
  H      153.307    -282.009     154.594
  H      151.729    -281.927     151.970
  H      158.392    -286.882     154.529
  H      153.156    -279.936     151.537
  H      159.342    -285.846     153.498
  H      152.152    -279.703     152.959
  P      151.187    -280.906     155.615
  C      149.359    -281.971     157.079
  O      149.676    -280.929     156.164
  O      151.200    -279.555     154.750
  O      152.270    -280.921     156.647
  H      151.272    -278.780     155.336
  H      148.377    -281.744     157.519
  H      150.102    -282.022     157.873
  H      149.290    -282.923     156.545
  H      153.140    -276.728     156.460
  H      153.376    -276.162     154.824
  H      154.755    -276.593     155.807

 3  4  5  6  7  8  9  10  11  12  13  21  23  27  28  29  30  32 0
 6-311+G(2d,p)
 ****
 34  35 0
 6-311+G(2d,p)
 ****
 1  2  14  15  16  17  18  19  20  22  24  25  26 0
 3-21G
 ****
 31  33  36  37  38  39  40  41  42  43  44  45  46 0
 3-21G
 ****


