%nproc=1
%NoSave
%Mem=1900MB
#P OB98/GEN NMR

erre ene a

0 1
  C       48.293     156.758     622.989
  O       48.807     156.501     621.693
  P       47.946     155.684     620.603
  C       48.741     153.486     621.716
  O       47.629     154.277     621.308
  C       48.409     152.003     621.554
  O       47.299     151.655     622.395
  C       48.004     151.600     620.140
  O       49.140     151.516     619.285
  C       47.286     150.280     620.417
  O       48.236     149.225     620.593
  C       46.577     150.585     621.747
  N       45.161     150.925     621.577
  C       44.242     149.881     621.719
  O       44.623     148.728     621.977
  N       42.903     150.148     621.592
  C       42.515     151.368     621.320
  N       41.175     151.594     621.272
  C       43.451     152.488     621.108
  C       44.747     152.199     621.260
  O       48.574     155.585     619.257
  O       46.518     156.401     620.601
  H       48.838     149.508     621.316
  H       46.457     157.162     619.970
  H       43.077     153.474     620.866
  H       45.494     152.967     621.135
  H       46.649     149.719     622.422
  H       46.599     149.985     619.614
  H       47.294     152.334     619.726
  H       49.284     151.425     621.878
  H       40.570     150.843     621.591
  H       48.941     153.692     622.774
  H       40.793     152.526     621.362
  H       49.620     153.765     621.126
  P       48.888     151.718     617.713
  C       49.768     149.516     616.651
  O       48.638     150.244     617.112
  O       50.339     152.123     617.165
  O       47.847     152.727     617.374
  H       50.399     153.093     617.020
  H       49.467     148.465     616.510
  H       50.581     149.549     617.387
  H       50.108     149.918     615.688
  H       49.014     157.310     623.556
  H       48.086     155.831     623.481
  H       47.391     157.328     622.908

 3  4  5  6  7  8  9  10  11  12  13  23  27  28  29  30  32 0
 6-311+G(2d,p)
 ****
 34  35 0
 6-311+G(2d,p)
 ****
 1  2  14  15  16  17  18  19  20  21  22  24  25  26 0
 3-21G
 ****
 31  33  36  37  38  39  40  41  42  43  44  45  46 0
 3-21G
 ****


