%nproc=1
%NoSave
%Mem=1900MB
#P OB98/GEN NMR

erre ene a

0 1
  C      232.491    -239.390     511.229
  O      231.660    -238.989     512.299
  P      232.199    -239.259     513.795
  C      230.366    -241.040     514.289
  O      231.761    -240.759     514.188
  C      230.078    -241.929     515.499
  O      228.642    -242.137     515.591
  C      230.743    -243.319     515.459
  O      231.080    -243.655     516.807
  C      229.618    -244.191     514.936
  O      229.807    -245.582     515.149
  C      228.431    -243.566     515.666
  N      223.347    -243.596     516.318
  C      224.356    -243.090     517.074
  N      225.682    -243.114     516.829
  C      225.937    -243.729     515.661
  C      225.029    -244.301     514.799
  C      223.672    -244.220     515.169
  N      222.647    -244.748     514.393
  N      225.661    -244.869     513.706
  C      226.942    -244.635     513.916
  N      227.153    -243.930     515.075
  O      231.238    -238.344     514.690
  O      233.648    -238.942     514.013
  H      230.757    -245.804     515.081
  H      231.739    -237.934     515.430
  H      224.058    -242.601     517.997
  H      227.744    -244.968     513.270
  H      228.398    -243.849     516.717
  H      229.523    -244.044     513.857
  H      231.649    -243.345     514.846
  H      230.390    -241.392     516.405
  H      230.056    -241.582     513.386
  H      221.744    -244.815     514.845
  H      222.914    -245.380     513.656
  H      229.811    -240.105     514.338
  P      232.387    -244.548     517.083
  C      231.205    -246.818     516.774
  O      232.112    -245.892     516.234
  O      232.104    -245.059     518.575
  O      233.696    -243.874     516.894
  H      231.208    -245.438     518.663
  H      231.035    -247.622     516.065
  H      230.240    -246.329     516.989
  H      231.609    -247.245     517.708
  H      232.015    -239.154     510.300
  H      232.660    -240.445     511.285
  H      233.427    -238.875     511.292

 3  4  5  6  7  8  9  10  11  12  22  25  29  30  31  32 0
 6-311+G(2d,p)
 ****
 33  36  37 0
 6-311+G(2d,p)
 ****
 1  2  13  14  15  16  17  18  19  20  21  23  24  26 0
 3-21G
 ****
 27  28  34  35  38  39  40  41  42  43  44  45  46  47  48 0
 3-21G
 ****


