%nproc=1
%NoSave
%Mem=1900MB
#P OB98/GEN NMR

erre ene a

0 1
  C      206.246     448.985    -130.413
  O      206.183     448.969    -131.817
  P      207.524     449.045    -132.700
  C      207.183     451.526    -133.304
  O      208.008     450.584    -132.645
  C      207.766     452.929    -133.157
  O      207.851     453.312    -131.759
  C      209.193     453.066    -133.666
  O      209.404     452.915    -135.057
  C      209.605     454.389    -133.047
  O      209.124     455.496    -133.805
  C      208.900     454.313    -131.669
  N      209.836     454.028    -130.582
  C      210.278     455.130    -129.856
  O      209.924     456.284    -130.086
  N      211.187     454.860    -128.863
  C      211.710     453.637    -128.560
  O      212.557     453.473    -127.686
  C      211.220     452.517    -129.376
  C      210.315     452.753    -130.334
  O      207.420     448.482    -134.069
  O      208.613     448.316    -131.772
  H      208.144     455.444    -133.798
  H      208.755     448.726    -130.899
  H      211.526     455.646    -128.334
  H      211.603     451.528    -129.154
  H      209.943     451.941    -130.947
  H      208.404     455.269    -131.450
  H      210.699     454.486    -132.987
  H      209.802     452.273    -133.198
  H      207.089     453.635    -133.642
  H      206.189     451.506    -132.847
  H      207.075     451.250    -134.361
  P      210.752     452.316    -135.686
  C      211.658     454.733    -135.975
  O      211.915     453.415    -135.532
  O      210.630     451.631    -137.003
  O      211.174     451.232    -134.574
  H      211.640     450.498    -135.012
  H      212.559     455.324    -135.829
  H      210.847     455.182    -135.386
  H      211.394     454.737    -137.031
  H      205.256     448.927    -130.011
  H      206.711     449.892    -130.087
  H      206.819     448.148    -130.072

 3  4  5  6  7  8  9  10  11  12  13  23  28  29  30  31  32 0
 6-311+G(2d,p)
 ****
 33  34 0
 6-311+G(2d,p)
 ****
 1  2  14  15  16  17  18  19  20  21  22  24  25  26  27 0
 3-21G
 ****
 35  36  37  38  39  40  41  42  43  44  45 0
 3-21G
 ****


