%nproc=1
%NoSave
%Mem=1900MB
#P OB98/GEN NMR

erre ene a

0 1
  C      254.571     -38.613    -244.264
  O      254.901     -37.239    -244.222
  H      254.857     -39.088    -243.323
  H      253.489     -38.711    -244.392
  H      255.071     -39.108    -245.100
  P      256.454     -36.855    -244.341
  C      256.419     -36.761    -241.747
  O      257.112     -37.184    -242.912
  C      256.482     -37.839    -240.667
  O      257.802     -37.802    -240.054
  C      255.440     -37.676    -239.550
  O      254.967     -38.974    -239.178
  C      256.248     -37.098    -238.402
  O      255.679     -37.382    -237.129
  C      257.604     -37.759    -238.629
  N      259.906     -37.002    -234.161
  C      259.086     -37.979    -234.597
  N      258.557     -38.135    -235.828
  C      259.010     -37.185    -236.664
  C      259.853     -36.129    -236.366
  C      260.297     -36.044    -235.034
  N      261.078     -35.015    -234.562
  N      260.040     -35.332    -237.479
  C      259.301     -35.884    -238.422
  N      258.659     -37.004    -237.975
  O      256.409     -35.253    -244.373
  O      257.168     -37.417    -245.523
  H      256.374     -37.301    -236.447
  H      256.297     -34.948    -245.292
  H      258.808     -38.730    -233.862
  H      259.173     -35.500    -239.424
  H      257.644     -38.785    -238.243
  H      256.316     -36.009    -238.514
  H      254.592     -37.039    -239.826
  H      256.381     -38.819    -241.148
  H      255.370     -36.577    -242.004
  H      261.257     -34.980    -233.570
  H      261.285     -34.238    -235.172
  H      256.860     -35.829    -241.382
  P      253.606     -39.486    -239.853
  C      252.200     -39.089    -237.698
  O      252.373     -38.814    -239.084
  O      253.529     -41.020    -239.407
  O      253.578     -39.344    -241.340
  H      253.101     -41.553    -240.100
  H      251.338     -38.569    -237.336
  H      253.065     -38.764    -237.159
  H      252.067     -40.141    -237.557

 6  7  8  9  10  11  12  13  14  15  25  28  32  33  34  35 0
 6-311+G(2d,p)
 ****
 36  39  40 0
 6-311+G(2d,p)
 ****
 1  2  3  4  5  16  17  18  19  20  21  22  23  24 0
 3-21G
 ****
 26  27  29  30  31  37  38  41  42  43  44  45  46  47 0
 3-21G
 ****
 48 0
 3-21G
 ****


