%nproc=1
%NoSave
%Mem=1900MB
#P OB98/GEN NMR

erre ene a

0 1
  C       23.092     -28.901      92.235
  O       21.837     -28.254      92.310
  H       23.066     -29.621      91.413
  H       23.292     -29.437      93.167
  H       23.886     -28.173      92.046
  P       21.712     -27.035      93.342
  C       20.590     -27.876      95.563
  O       21.784     -27.655      94.823
  C       20.136     -29.325      95.398
  O       21.183     -30.245      95.767
  C       18.978     -29.715      96.302
  O       17.757     -29.130      95.910
  C       19.011     -31.229      96.155
  O       18.399     -31.645      94.926
  C       20.537     -31.499      96.124
  N       21.038     -32.024      97.386
  C       20.456     -33.223      97.820
  O       19.589     -33.774      97.141
  N       20.856     -33.748      99.024
  C       21.770     -33.149      99.721
  N       22.114     -33.715     100.909
  C       22.426     -31.898      99.289
  C       22.010     -31.394      98.127
  O       20.173     -26.620      93.207
  O       22.676     -25.914      93.125
  H       17.512     -31.235      94.910
  H       19.557     -27.360      93.334
  H       23.189     -31.436      99.899
  H       22.439     -30.479      97.738
  H       20.785     -32.218      95.334
  H       18.477     -31.732      96.963
  H       19.214     -29.473      97.346
  H       19.894     -29.489      94.339
  H       21.627     -34.561     101.182
  H       19.801     -27.187      95.246
  H       22.786     -33.322     101.550
  H       20.808     -27.667      96.615
  P       16.552     -28.973      96.955
  C       14.705     -30.689      96.439
  O       15.922     -30.439      97.138
  O       15.561     -27.907      96.629
  O       17.307     -28.754      98.352
  H       17.893     -29.484      98.618
  H       14.381     -31.690      96.634
  H       14.865     -30.564      95.388
  H       13.956     -30.001      96.770

 6  7  8  9  10  11  12  13  14  15  16  26  30  31  32  33  35 0
 6-311+G(2d,p)
 ****
 37  38 0
 6-311+G(2d,p)
 ****
 1  2  3  4  5  17  18  19  20  21  22  23  24  25 0
 3-21G
 ****
 27  28  29  34  36  39  40  41  42  43  44  45  46 0
 3-21G
 ****


