%nproc=1
%NoSave
%Mem=1900MB
#P OB98/GEN NMR

erre ene a

0 1
  C      -89.329     143.483      75.333
  O      -88.100     142.957      74.868
  P      -86.938     142.665      75.936
  C      -85.895     145.060      75.648
  O      -86.471     144.092      76.504
  C      -85.098     146.086      76.461
  O      -84.584     147.103      75.560
  C      -85.910     146.802      77.549
  O      -85.027     147.033      78.655
  C      -86.283     148.114      76.882
  O      -86.603     149.133      77.816
  C      -85.018     148.386      76.058
  N      -85.231     149.322      74.953
  C      -85.450     150.659      75.266
  O      -85.498     151.094      76.416
  N      -85.650     151.494      74.197
  C      -85.713     151.124      72.886
  O      -85.913     151.914      71.971
  C      -85.521     149.692      72.620
  C      -85.285     148.873      73.646
  O      -85.741     142.216      74.977
  O      -87.318     141.671      76.979
  H      -85.729     142.698      74.132
  H      -86.884     149.922      77.318
  H      -85.775     152.477      74.400
  H      -85.580     149.355      71.591
  H      -85.140     147.811      73.476
  H      -84.221     148.765      76.710
  H      -87.155     147.958      76.236
  H      -86.777     146.220      77.877
  H      -84.232     145.575      76.904
  H      -86.685     145.576      75.100
  H      -85.251     144.556      74.915
  P      -85.651     147.010      80.138
  C      -85.926     149.612      80.271
  O      -86.528     148.339      80.309
  O      -84.337     147.341      81.003
  O      -86.295     145.722      80.535
  H      -83.839     148.100      80.658
  H      -86.696     150.361      80.067
  H      -85.166     149.670      79.487
  H      -85.471     149.830      81.240
  H      -89.994     143.621      74.506
  H      -89.156     144.424      75.812
  H      -89.766     142.802      76.033

 3  4  5  6  7  8  9  10  11  12  13  24  28  29  30  31  32 0
 6-311+G(2d,p)
 ****
 33  34 0
 6-311+G(2d,p)
 ****
 1  2  14  15  16  17  18  19  20  21  22  23  25  26  27 0
 3-21G
 ****
 35  36  37  38  39  40  41  42  43  44  45 0
 3-21G
 ****


