%nproc=1
%NoSave
%Mem=1900MB
#P OB98/GEN NMR

erre ene a

0 1
  C      455.234     867.571    -325.763
  O      455.526     866.223    -325.444
  H      454.266     867.637    -326.264
  H      455.191     868.154    -324.835
  H      456.018     867.992    -326.401
  P      455.607     865.191    -326.670
  C      457.369     863.373    -327.238
  O      456.597     864.008    -326.223
  C      458.823     863.253    -326.787
  O      459.464     864.548    -326.944
  C      459.011     862.803    -325.322
  O      459.790     861.597    -325.270
  C      459.809     863.932    -324.676
  O      460.813     863.466    -323.780
  C      460.416     864.673    -325.870
  N      463.034     867.797    -322.824
  C      463.246     866.505    -323.178
  N      462.573     865.763    -324.082
  C      461.605     866.490    -324.649
  C      461.279     867.815    -324.407
  C      462.025     868.476    -323.427
  N      461.769     869.774    -323.015
  N      460.201     868.205    -325.186
  C      459.864     867.134    -325.855
  N      460.657     866.064    -325.555
  O      456.446     865.996    -327.772
  O      454.282     864.745    -327.200
  H      461.378     862.859    -324.292
  H      455.996     865.930    -328.635
  H      464.066     866.007    -322.674
  H      459.016     867.052    -326.544
  H      461.361     864.212    -326.199
  H      459.103     864.575    -324.116
  H      458.052     862.646    -324.806
  H      459.340     862.563    -327.461
  H      457.330     863.973    -328.161
  H      462.294     870.125    -322.219
  H      460.964     870.235    -323.381
  H      456.942     862.390    -327.448
  P      458.985     860.212    -325.218
  C      459.652     857.710    -325.431
  O      460.057     859.032    -325.099
  O      458.421     860.060    -326.716
  O      457.880     860.186    -324.208
  H      457.616     859.526    -326.720
  H      460.477     857.041    -325.301
  H      459.327     857.682    -326.450
  H      458.847     857.412    -324.792

 6  7  8  9  10  11  12  13  14  15  25  28  32  33  34  35 0
 6-311+G(2d,p)
 ****
 36  39  40 0
 6-311+G(2d,p)
 ****
 1  2  3  4  5  16  17  18  19  20  21  22  23  24 0
 3-21G
 ****
 26  27  29  30  31  37  38  41  42  43  44  45  46  47  48 0
 3-21G
 ****


