%nproc=1
%NoSave
%Mem=1900MB
#P OB98/GEN NMR

erre ene a

0 1
  C       33.209      99.638     320.332
  O       33.617      98.870     321.447
  H       33.755     100.586     320.343
  H       32.138      99.848     320.387
  H       33.441      99.107     319.406
  P       32.890      97.453     321.655
  C       31.544      98.375     323.680
  O       31.501      97.755     322.401
  C       30.599      97.649     324.632
  O       29.227      97.893     324.243
  C       30.760      96.135     324.634
  O       31.878      95.714     325.395
  C       29.434      95.706     325.245
  O       29.473      95.760     326.679
  C       28.451      96.757     324.677
  N       27.626      96.213     323.602
  C       26.340      95.819     323.969
  O       25.910      95.910     325.118
  N       25.576      95.275     322.969
  C       25.977      95.056     321.683
  O       25.266      94.497     320.857
  C       27.338      95.509     321.353
  C       28.093      96.049     322.312
  O       33.783      96.751     322.783
  O       32.772      96.617     320.424
  H       34.367      96.082     322.375
  H       28.586      95.485     326.985
  H       24.647      94.974     323.218
  H       27.685      95.353     320.336
  H       29.109      96.367     322.098
  H       27.780      97.115     325.470
  H       29.181      94.681     324.972
  H       30.816      95.758     323.605
  H       30.745      98.053     325.645
  H       31.229      99.421     323.592
  H       32.574      98.346     324.056
  P       32.640      94.369     324.963
  C       31.338      92.817     326.638
  O       31.647      93.154     325.297
  O       33.769      94.276     326.088
  O       33.149      94.396     323.559
  H       33.465      94.586     326.958
  H       30.664      91.986     326.651
  H       30.879      93.655     327.120
  H       32.237      92.556     327.156

 6  7  8  9  10  11  12  13  14  15  16  27  31  32  33  34  35 0
 6-311+G(2d,p)
 ****
 36  37 0
 6-311+G(2d,p)
 ****
 1  2  3  4  5  17  18  19  20  21  22  23  24  25 0
 3-21G
 ****
 26  28  29  30  38  39  40  41  42  43  44  45 0
 3-21G
 ****


