%nproc=1
%NoSave
%Mem=1900MB
#P OB98/GEN NMR

erre ene a

0 1
  C     -520.184    -307.024      71.920
  O     -519.280    -307.945      72.502
  H     -520.901    -307.546      71.281
  H     -520.727    -306.514      72.720
  H     -519.633    -306.283      71.334
  P     -518.462    -308.877      71.485
  C     -519.332    -311.313      71.306
  O     -519.504    -309.955      70.913
  C     -519.828    -311.512      72.735
  O     -521.115    -310.878      72.913
  C     -520.045    -312.965      73.136
  O     -518.822    -313.612      73.464
  C     -520.935    -312.789      74.360
  O     -520.127    -312.460      75.504
  C     -521.803    -311.590      73.967
  N     -526.229    -313.931      75.132
  C     -525.098    -313.745      75.845
  N     -523.961    -313.125      75.470
  C     -524.060    -312.646      74.217
  C     -525.157    -312.760      73.369
  C     -526.284    -313.444      73.869
  N     -527.426    -313.647      73.121
  N     -524.902    -312.141      72.160
  C     -523.682    -311.665      72.277
  N     -523.130    -311.948      73.496
  O     -517.518    -309.742      72.451
  O     -517.659    -308.151      70.453
  H     -519.664    -313.276      75.770
  H     -516.664    -309.892      72.006
  H     -525.105    -314.141      76.855
  H     -523.168    -311.100      71.509
  H     -521.920    -310.885      74.804
  H     -521.502    -313.687      74.611
  H     -520.601    -313.515      72.363
  H     -519.113    -311.025      73.406
  H     -518.270    -311.577      71.256
  H     -528.256    -313.965      73.596
  H     -527.448    -313.275      72.186
  H     -519.893    -311.950      70.615
  P     -518.739    -315.205      73.229
  C     -518.992    -316.617      75.386
  O     -519.648    -315.859      74.370
  O     -517.244    -315.559      73.681
  O     -519.019    -315.649      71.826
  H     -516.949    -316.375      73.224
  H     -519.718    -316.992      76.077
  H     -518.296    -315.991      75.905
  H     -518.470    -317.436      74.938

 6  7  8  9  10  11  12  13  14  15  25  28  32  33  34  35 0
 6-311+G(2d,p)
 ****
 36  39  40 0
 6-311+G(2d,p)
 ****
 1  2  3  4  5  16  17  18  19  20  21  22  23  24 0
 3-21G
 ****
 26  27  29  30  31  37  38  41  42  43  44  45  46  47  48 0
 3-21G
 ****


