%nproc=1
%NoSave
%Mem=1900MB
#P OB98/GEN NMR

erre ene a

0 1
  C     -299.727     -95.762       5.349
  O     -298.914     -96.890       5.088
  P     -298.931     -97.595       3.652
  C     -296.652     -96.682       2.928
  O     -298.048     -96.694       2.659
  C     -295.839     -96.899       1.652
  O     -294.425     -96.931       1.990
  C     -296.158     -98.196       0.899
  O     -295.999     -97.917      -0.495
  C     -295.053     -99.132       1.359
  O     -294.846    -100.225       0.474
  C     -293.888     -98.155       1.445
  N     -288.963     -99.509       1.596
  C     -289.754     -99.120       0.576
  N     -291.063     -98.798       0.612
  C     -291.546     -98.911       1.861
  C     -290.866     -99.326       2.993
  C     -289.501     -99.622       2.834
  N     -288.670     -99.986       3.866
  N     -291.723     -99.369       4.079
  C     -292.890     -98.987       3.604
  N     -292.816     -98.637       2.286
  O     -300.285     -97.948       3.132
  O     -298.033     -98.901       3.852
  H     -294.134    -100.784       0.835
  H     -298.603     -99.696       3.884
  H     -289.273     -99.048      -0.397
  H     -293.811     -98.943       4.169
  H     -293.465     -97.927       0.459
  H     -295.304     -99.540       2.346
  H     -297.157     -98.595       1.102
  H     -295.992     -96.029       0.999
  H     -296.436     -97.490       3.632
  H     -287.685    -100.043       3.666
  H     -288.974     -99.821       4.824
  H     -296.372     -95.732       3.398
  P     -296.465     -98.996      -1.586
  C     -298.219     -97.407      -2.568
  O     -297.989     -98.656      -1.937
  O     -296.190    -100.419      -1.236
  O     -295.681     -98.548      -2.913
  H     -295.675     -99.287      -3.551
  H     -298.223     -96.617      -1.814
  H     -299.192     -97.436      -3.066
  H     -297.445     -97.197      -3.312
  H     -299.575     -95.438       6.358
  H     -300.755     -96.023       5.209
  H     -299.466     -94.971       4.677

 3  4  5  6  7  8  9  10  11  12  22  25  29  30  31  32 0
 6-311+G(2d,p)
 ****
 33  36  37 0
 6-311+G(2d,p)
 ****
 1  2  13  14  15  16  17  18  19  20  21  23  24  26 0
 3-21G
 ****
 27  28  34  35  38  39  40  41  42  43  44  45  46  47  48 0
 3-21G
 ****


