%nproc=1
%NoSave
%Mem=1900MB
#P OB98/GEN NMR

erre ene a

0 1
  C     -894.360     410.749    -898.951
  O     -893.550     411.646    -898.231
  P     -893.730     413.242    -898.421
  C     -894.230     413.429    -895.891
  O     -894.690     413.730    -897.221
  C     -894.020     414.745    -895.121
  O     -895.160     415.626    -895.261
  C     -893.870     414.563    -893.621
  O     -892.720     413.873    -893.171
  C     -894.060     415.989    -893.131
  O     -892.860     416.760    -893.251
  C     -895.150     416.518    -894.101
  N     -896.470     416.582    -893.481
  C     -897.010     417.875    -893.381
  O     -896.450     418.879    -893.781
  N     -898.230     417.956    -892.751
  C     -898.920     416.904    -892.211
  O     -900.000     417.058    -891.631
  C     -898.290     415.589    -892.321
  C     -897.120     415.484    -892.941
  O     -894.160     413.669    -899.771
  O     -892.310     413.815    -897.961
  H     -892.130     416.235    -892.901
  H     -892.050     413.607    -897.051
  H     -898.640     418.873    -892.651
  H     -898.820     414.728    -891.921
  H     -896.620     414.519    -893.051
  H     -894.880     417.514    -894.471
  H     -894.350     416.027    -892.061
  H     -894.730     413.979    -893.271
  H     -893.150     415.274    -895.561
  H     -893.300     412.889    -895.941
  H     -894.980     412.800    -895.381
  P     -892.720     412.931    -891.851
  C     -892.330     410.619    -893.001
  O     -893.210     411.465    -892.301
  O     -893.300     413.509    -890.611
  O     -891.130     412.683    -891.641
  H     -890.960     412.564    -890.701
  H     -892.840     409.689    -893.271
  H     -891.450     410.385    -892.381
  H     -892.000     411.102    -893.941
  H     -894.095     409.745    -898.694
  H     -894.213     410.899    -900.000
  H     -895.387     410.921    -898.706

 3  4  5  6  7  8  9  10  11  12  13  23  28  29  30  31  32 0
 6-311+G(2d,p)
 ****
 33  34 0
 6-311+G(2d,p)
 ****
 1  2  14  15  16  17  18  19  20  21  22  24  25  26  27 0
 3-21G
 ****
 35  36  37  38  39  40  41  42  43  44  45 0
 3-21G
 ****


