%nproc=1
%NoSave
%Mem=1900MB
#P OB98/GEN NMR

erre ene a

0 1
  C      184.240      32.005     -56.067
  O      184.076      33.229     -56.786
  P      185.237      33.620     -57.823
  C      186.233      35.726     -56.688
  O      186.414      34.357     -57.019
  C      187.548      36.512     -56.771
  O      187.295      37.939     -56.847
  C      188.474      36.279     -55.576
  O      189.819      36.347     -56.057
  C      188.210      37.487     -54.698
  O      189.285      37.712     -53.791
  C      188.008      38.574     -55.766
  N      187.297      39.748     -55.264
  C      188.073      40.833     -54.851
  O      189.304      40.752     -54.852
  N      187.444      41.968     -54.408
  C      186.150      41.997     -54.332
  N      185.585      43.150     -53.881
  C      185.292      40.854     -54.700
  C      185.928      39.778     -55.156
  O      184.578      34.790     -58.693
  O      185.675      32.480     -58.685
  H      189.228      37.041     -53.077
  H      184.697      34.606     -59.643
  H      184.219      40.917     -54.600
  H      185.386      38.892     -55.454
  H      188.977      38.913     -56.159
  H      187.289      37.341     -54.119
  H      188.308      35.321     -55.074
  H      188.060      36.221     -57.696
  H      186.206      43.914     -53.645
  H      185.830      35.812     -55.677
  H      184.591      43.283     -53.780
  H      185.477      36.155     -57.354
  P      190.703      35.013     -56.031
  C      192.359      35.946     -54.304
  O      191.358      34.983     -54.566
  O      191.962      35.443     -56.930
  O      190.094      33.744     -56.523
  H      192.554      34.680     -57.053
  H      192.626      35.894     -53.245
  H      191.991      36.951     -54.527
  H      193.251      35.731     -54.899
  H      183.405      31.860     -55.414
  H      185.141      32.048     -55.491
  H      184.297      31.190     -56.758

 3  4  5  6  7  8  9  10  11  12  13  21  23  27  28  29  30  32 0
 6-311+G(2d,p)
 ****
 34  35 0
 6-311+G(2d,p)
 ****
 1  2  14  15  16  17  18  19  20  22  24  25  26 0
 3-21G
 ****
 31  33  36  37  38  39  40  41  42  43  44  45  46 0
 3-21G
 ****


