%nproc=1
%NoSave
%Mem=1900MB
#P OB98/GEN NMR

erre ene a

0 1
  C      621.003    -223.995     148.075
  O      620.478    -223.103     149.039
  H      620.458    -224.938     148.135
  H      622.059    -224.188     148.277
  H      620.888    -223.589     147.064
  P      620.975    -221.581     149.039
  C      618.904    -220.170     149.669
  O      620.091    -220.804     150.126
  C      618.602    -218.923     150.505
  O      617.829    -219.320     151.678
  C      619.863    -218.181     151.014
  O      619.515    -216.797     151.116
  C      620.026    -218.814     152.382
  O      620.950    -218.130     153.187
  C      618.555    -218.831     152.836
  N      618.270    -219.648     154.010
  C      617.959    -218.992     155.190
  O      617.896    -217.767     155.318
  N      617.706    -219.796     156.271
  C      617.722    -221.156     156.277
  O      617.455    -221.829     157.272
  C      618.067    -221.799     154.995
  C      618.316    -221.029     153.936
  O      621.054    -220.923     147.700
  O      622.415    -221.660     149.740
  H      623.113    -221.615     149.063
  H      621.743    -217.909     152.649
  H      617.473    -219.333     157.137
  H      618.095    -222.877     154.965
  H      618.565    -221.467     152.977
  H      618.211    -217.808     153.016
  H      620.414    -219.836     152.277
  H      620.720    -218.299     150.351
  H      617.960    -218.249     149.916
  H      618.078    -220.887     149.767
  H      619.017    -219.902     148.618
  P      619.869    -215.708     149.992
  C      618.157    -214.064     151.024
  O      619.491    -214.256     150.557
  O      619.273    -216.005     148.650
  O      621.475    -215.686     149.919
  H      621.755    -215.393     149.026
  H      618.042    -213.058     151.371
  H      617.959    -214.743     151.827
  H      617.470    -214.247     150.225

 6  7  8  9  10  11  12  13  14  15  16  27  31  32  33  34  35 0
 6-311+G(2d,p)
 ****
 36  37 0
 6-311+G(2d,p)
 ****
 1  2  3  4  5  17  18  19  20  21  22  23  24  25 0
 3-21G
 ****
 26  28  29  30  38  39  40  41  42  43  44  45 0
 3-21G
 ****


