%nproc=1
%NoSave
%Mem=1900MB
#P OB98/GEN NMR

erre ene a

0 1
  C      150.020    -324.560     -12.467
  O      149.164    -325.494     -11.839
  H      151.059    -324.852     -12.278
  H      149.854    -323.560     -12.054
  H      149.847    -324.551     -13.547
  P      147.588    -325.247     -11.994
  C      147.517    -326.129     -14.435
  O      147.071    -326.302     -13.097
  C      147.021    -327.280     -15.315
  O      147.656    -328.515     -14.877
  C      145.500    -327.496     -15.260
  O      145.038    -327.861     -16.568
  C      145.355    -328.692     -14.332
  O      144.128    -329.386     -14.538
  C      146.604    -329.488     -14.699
  N      146.428    -334.391     -13.562
  C      146.035    -333.720     -14.705
  N      145.512    -334.470     -15.703
  N      146.142    -332.426     -14.859
  C      146.711    -331.802     -13.794
  C      147.128    -332.350     -12.600
  C      146.983    -333.782     -12.437
  O      147.293    -334.429     -11.439
  N      147.616    -331.378     -11.756
  C      147.491    -330.255     -12.440
  N      146.952    -330.462     -13.682
  O      147.501    -323.842     -12.763
  O      146.810    -325.238     -10.721
  H      144.139    -329.750     -15.446
  H      146.691    -323.360     -12.517
  H      146.310    -335.383     -13.491
  H      147.769    -329.271     -12.083
  H      146.483    -330.040     -15.642
  H      145.396    -328.363     -13.287
  H      145.428    -335.472     -15.669
  H      144.945    -326.624     -14.904
  H      145.231    -333.995     -16.557
  H      147.356    -327.103     -16.342
  H      148.613    -326.108     -14.448
  H      147.138    -325.177     -14.822
  P      144.118    -326.807     -17.353
  C      145.817    -325.488     -18.811
  O      144.801    -326.482     -18.772
  O      144.336    -325.449     -16.515
  O      142.673    -327.185     -17.403
  H      143.525    -325.247     -16.009
  H      146.174    -325.382     -19.814
  H      146.625    -325.779     -18.173
  H      145.416    -324.555     -18.475

 6  7  8  9  10  11  12  13  14  15  26  29  33  34 0
 6-311+G(2d,p)
 ****
 36  38  39  40  41 0
 6-311+G(2d,p)
 ****
 1  2  3  4  5  16  17  18  19  20  21  22  23  24  25 0
 3-21G
 ****
 27  28  30  31  32  35  37  42  43  44  45  46  47 0
 3-21G
 ****
 48  49 0
 3-21G
 ****


