%nproc=1
%NoSave
%Mem=1900MB
#P OB98/GEN NMR

erre ene a

0 1
  C      265.965    -172.061     413.342
  O      265.876    -172.258     414.741
  H      265.359    -171.197     413.069
  H      265.588    -172.941     412.816
  H      267.002    -171.874     413.049
  P      266.740    -173.466     415.348
  C      266.180    -175.977     415.770
  O      265.918    -174.803     415.014
  C      265.441    -177.175     415.163
  O      264.010    -176.992     415.364
  C      265.658    -177.328     413.644
  O      265.568    -178.720     413.307
  C      264.451    -176.599     413.083
  O      264.256    -176.938     411.729
  C      263.388    -177.070     414.064
  N      258.383    -177.139     413.079
  C      259.312    -178.122     413.117
  N      260.628    -178.019     413.398
  C      260.952    -176.748     413.684
  C      260.118    -175.647     413.686
  C      258.775    -175.874     413.357
  N      257.829    -174.874     413.293
  N      260.829    -174.501     414.011
  C      262.068    -174.916     414.207
  N      262.187    -176.267     414.026
  O      266.553    -173.288     416.928
  O      268.177    -173.497     414.956
  H      263.662    -176.298     411.289
  H      267.279    -172.752     417.293
  H      258.948    -179.122     412.888
  H      262.908    -174.288     414.470
  H      263.092    -178.112     413.896
  H      264.588    -175.512     413.134
  H      266.618    -176.928     413.303
  H      265.724    -178.086     415.698
  H      265.840    -175.811     416.798
  H      267.256    -176.177     415.773
  H      256.892    -175.118     413.023
  H      258.110    -173.916     413.464
  P      266.493    -179.302     412.122
  C      266.219    -180.019     409.630
  O      265.681    -179.311     410.738
  O      266.564    -180.862     412.486
  O      267.872    -178.726     412.050
  H      267.483    -181.173     412.413
  H      265.560    -179.925     408.793
  H      266.327    -181.053     409.885
  H      267.176    -179.612     409.378

 6  7  8  9  10  11  12  13  14  15  25  28  32  33  34  35 0
 6-311+G(2d,p)
 ****
 36  37  40 0
 6-311+G(2d,p)
 ****
 1  2  3  4  5  16  17  18  19  20  21  22  23  24 0
 3-21G
 ****
 26  27  29  30  31  38  39 41  42  43  44  45  46  47  48 0
 3-21G
 ****


