%nproc=1
%NoSave
%Mem=1900MB
#P OB98/GEN NMR

erre ene a

0 1
  C     -886.740    -522.687    -150.543
  O     -885.917    -521.688    -149.970
  H     -886.945    -522.424    -151.584
  H     -887.699    -522.754    -150.017
  H     -886.236    -523.655    -150.518
  P     -885.614    -521.766    -148.399
  C     -883.320    -522.920    -148.731
  O     -884.641    -523.026    -148.220
  C     -882.369    -522.444    -147.639
  O     -882.224    -523.453    -146.623
  C     -880.957    -522.162    -148.156
  O     -880.906    -520.940    -148.855
  C     -880.174    -522.208    -146.856
  O     -880.290    -520.977    -146.130
  C     -880.878    -523.362    -146.104
  N     -880.171    -524.644    -146.242
  C     -879.536    -525.109    -145.097
  O     -879.588    -524.469    -144.044
  N     -878.840    -526.297    -145.170
  C     -878.792    -526.951    -146.291
  N     -878.091    -528.117    -146.305
  C     -879.465    -526.483    -147.520
  C     -880.129    -525.334    -147.430
  O     -886.798    -521.758    -147.482
  O     -884.637    -520.520    -148.143
  H     -881.227    -520.894    -145.885
  H     -885.153    -519.722    -147.922
  H     -879.407    -527.067    -148.437
  H     -880.643    -524.924    -148.290
  H     -880.964    -523.128    -145.037
  H     -879.108    -522.388    -147.038
  H     -880.611    -522.993    -148.784
  H     -882.799    -521.549    -147.167
  H     -877.630    -528.381    -145.440
  H     -883.347    -522.196    -149.557
  H     -878.063    -528.743    -147.088
  H     -882.976    -523.880    -149.130
  P     -880.370    -520.884    -150.362
  C     -882.805    -520.393    -151.070
  O     -881.659    -521.200    -151.283
  O     -879.172    -521.726    -150.640
  O     -880.139    -519.321    -150.617
  H     -879.321    -518.999    -150.148
  H     -883.585    -520.698    -151.736
  H     -882.559    -519.368    -151.255
  H     -883.136    -520.503    -150.058

 6  7  8  9  10  11  12  13  14  15  16  26  30  31  32  33  35 0
 6-311+G(2d,p)
 ****
 37  38 0
 6-311+G(2d,p)
 ****
 1  2  3  4  5  17  18  19  20  21  22  23  24  25 0
 3-21G
 ****
 27  28  29  34  36  39  40  41  42  43  44  45  46 0
 3-21G
 ****


