%nproc=1
%NoSave
%Mem=1900MB
#P OB98/GEN NMR

erre ene a

0 1
  C      328.398    -290.573     422.168
  O      327.785    -291.682     421.491
  P      327.743    -293.116     422.222
  C      329.404    -295.013     422.909
  O      329.230    -293.715     422.357
  C      330.895    -295.367     423.042
  O      331.453    -295.721     421.733
  C      331.768    -294.236     423.607
  O      332.818    -294.849     424.361
  C      332.335    -293.603     422.344
  O      333.499    -292.827     422.586
  C      332.573    -294.848     421.494
  N      332.732    -294.581     420.060
  C      334.025    -294.527     419.545
  O      335.047    -294.637     420.222
  N      334.103    -294.310     418.191
  C      333.064    -294.111     417.335
  O      333.203    -293.890     416.143
  C      331.720    -294.142     417.950
  C      331.624    -294.376     419.260
  O      327.094    -294.053     421.094
  O      326.923    -293.176     423.475
  H      334.158    -293.415     423.002
  H      326.407    -294.612     421.489
  H      335.030    -294.291     417.792
  H      330.863    -293.984     417.303
  H      330.641    -294.415     419.731
  H      333.466    -295.373     421.862
  H      331.577    -292.939     421.905
  H      331.207    -293.533     424.230
  H      330.976    -296.261     423.670
  H      328.922    -295.752     422.254
  H      328.917    -295.059     423.889
  P      332.980    -294.443     425.917
  C      334.716    -293.032     427.270
  O      334.284    -293.514     426.025
  O      333.476    -295.842     426.525
  O      331.739    -293.921     426.545
  H      334.165    -296.267     425.992
  H      334.638    -293.794     428.051
  H      334.121    -292.152     427.552
  H      335.769    -292.732     427.193
  H      328.342    -289.702     421.549
  H      329.424    -290.801     422.370
  H      327.885    -290.390     423.089

 3  4  5  6  7  8  9  10  11  12  13  23  28  29  30  31  32 0
 6-311+G(2d,p)
 ****
 33  34 0
 6-311+G(2d,p)
 ****
 1  2  14  15  16  17  18  19  20  21  22  24  25  26 0
 3-21G
 ****
 27  35  36  37  38  39  40  41  42  43  44  45 0
 3-21G
 ****


