%nproc=1
%NoSave
%Mem=1900MB
#P OB98/GEN NMR

erre ene a

0 1
  C      -81.174    -190.668    -338.524
  O      -81.874    -190.646    -339.753
  H      -81.866    -190.967    -337.735
  H      -80.783    -189.674    -338.289
  H      -80.355    -191.394    -338.567
  P      -81.101    -190.174    -341.074
  C      -79.927    -192.407    -341.632
  O      -80.935    -191.474    -342.005
  C      -79.883    -193.569    -342.635
  O      -81.197    -194.183    -342.659
  C      -79.539    -193.100    -344.059
  O      -78.448    -193.822    -344.636
  C      -80.885    -193.148    -344.774
  O      -80.799    -193.327    -346.172
  C      -81.640    -194.255    -344.029
  N      -83.093    -194.140    -344.110
  C      -83.700    -194.452    -345.324
  O      -83.102    -194.829    -346.331
  N      -85.065    -194.317    -345.358
  C      -85.861    -193.904    -344.326
  O      -87.078    -193.809    -344.417
  C      -85.164    -193.560    -343.078
  C      -83.834    -193.690    -343.026
  O      -79.841    -189.406    -340.845
  O      -82.184    -189.300    -341.866
  H      -80.185    -192.643    -346.515
  H      -81.965    -188.351    -341.781
  H      -85.518    -194.557    -346.228
  H      -85.762    -193.218    -342.246
  H      -83.285    -193.449    -342.119
  H      -81.364    -195.239    -344.426
  H      -81.400    -192.192    -344.607
  H      -79.178    -192.066    -344.050
  H      -79.170    -194.319    -342.274
  H      -80.169    -192.779    -340.628
  H      -78.953    -191.908    -341.599
  P      -77.004    -193.215    -344.938
  C      -75.753    -192.713    -342.681
  O      -76.021    -193.617    -343.745
  O      -76.973    -191.789    -345.383
  O      -76.464    -194.115    -346.165
  H      -75.895    -193.528    -346.710
  H      -75.076    -193.168    -341.989
  H      -76.667    -192.471    -342.180
  H      -75.315    -191.819    -343.074

 6  7  8  9  10  11  12  13  14  15  16  26  31  32  33  34  35 0
 6-311+G(2d,p)
 ****
 36  37 0
 6-311+G(2d,p)
 ****
 1  2  3  4  5  17  18  19  20  21  22  23  24  25 0
 3-21G
 ****
 27  28  29  30  38  39  40  41  42  43  44  45 0
 3-21G
 ****


