%nproc=1
%NoSave
%Mem=1900MB
#P OB98/GEN NMR

erre ene a

0 1
  C       28.896     -97.496     106.893
  O       28.354     -96.309     106.347
  P       27.507     -95.283     107.243
  C       25.544     -96.382     105.997
  O       25.997     -95.831     107.224
  C       24.038     -96.648     106.028
  O       23.751     -97.706     106.985
  C       23.181     -95.432     106.409
  O       21.960     -95.554     105.672
  C       22.934     -95.658     107.889
  O       21.823     -94.919     108.378
  C       22.786     -97.185     107.927
  N       22.981     -97.720     109.270
  C       21.828     -98.027     109.998
  O       20.715     -97.771     109.536
  N       21.962     -98.563     111.255
  C       23.144     -98.683     111.776
  N       23.214     -99.224     113.022
  C       24.377     -98.254     111.092
  C       24.226     -97.801     109.848
  O       27.659     -93.846     106.875
  O       27.975     -95.613     108.738
  H       21.750     -95.075     109.345
  H       28.864     -95.216     108.915
  H       25.333     -98.321     111.587
  H       25.072     -97.463     109.266
  H       21.789     -97.486     107.575
  H       23.817     -95.349     108.461
  H       23.664     -94.475     106.204
  H       23.741     -97.019     105.039
  H       22.345     -99.519     113.451
  H       26.065     -97.331     105.839
  H       24.086     -99.438     113.484
  H       25.804     -95.716     105.167
  P       21.244     -94.273     105.028
  C       19.389     -94.347     106.792
  O       20.410     -93.566     106.199
  O       20.470     -94.542     103.779
  O       22.443     -93.241     104.760
  H       22.141     -92.545     104.145
  H       19.088     -93.884     107.737
  H       19.740     -95.366     106.990
  H       18.523     -94.386     106.124
  H       29.420     -98.033     106.130
  H       28.105     -98.105     107.278
  H       29.573     -97.248     107.684

 3  4  5  6  7  8  9  10  11  12  13  23  27  28  29  30  32 0
 6-311+G(2d,p)
 ****
 34  35 0
 6-311+G(2d,p)
 ****
 1  2  14  15  16  17  18  19  20  21  22  24  25  26 0
 3-21G
 ****
 31  33  36  37  38  39  40  41  42  43  44  45  46 0
 3-21G
 ****


