%nproc=1
%NoSave
%Mem=1900MB
#P OB98/GEN NMR

erre ene a

0 1
  C       57.734     -27.642       0.164
  O       56.517     -26.908       0.163
  P       55.184     -27.650      -0.334
  C       55.815     -26.950      -2.750
  O       55.394     -27.998      -1.889
  C       55.996     -27.451      -4.182
  O       57.096     -28.400      -4.216
  C       54.770     -28.159      -4.767
  O       54.748     -27.880      -6.172
  C       55.088     -29.627      -4.558
  O       54.340     -30.472      -5.427
  C       56.594     -29.617      -4.808
  N       59.058     -33.986      -5.796
  C       58.544     -33.041      -6.611
  N       57.902     -31.903      -6.273
  C       57.812     -31.789      -4.937
  C       58.257     -32.689      -3.983
  C       58.913     -33.837      -4.458
  N       59.447     -34.796      -3.631
  N       57.957     -32.237      -2.715
  C       57.342     -31.087      -2.899
  N       57.253     -30.764      -4.223
  O       54.111     -26.463      -0.358
  O       54.728     -28.780       0.522
  H       54.395     -31.385      -5.087
  H       53.445     -26.603       0.343
  H       58.671     -33.218      -7.676
  H       56.945     -30.458      -2.115
  H       56.836     -29.597      -5.878
  H       54.858     -29.913      -3.526
  H       53.821     -27.864      -4.308
  H       56.285     -26.600      -4.811
  H       56.774     -26.565      -2.391
  H       60.020     -35.515      -4.040
  H       59.513     -34.602      -2.637
  H       55.083     -26.137      -2.723
  P       53.310     -27.778      -6.872
  C       52.945     -30.305      -7.323
  O       52.559     -29.162      -6.586
  O       53.653     -27.846      -8.435
  O       52.551     -26.539      -6.528
  H       52.970     -27.376      -8.947
  H       52.833     -31.189      -6.689
  H       53.984     -30.242      -7.662
  H       52.292     -30.408      -8.194
  H       58.527     -27.017       0.518
  H       57.955     -27.968      -0.831
  H       57.637     -28.493       0.805

 3  4  5  6  7  8  9  10  11  12  22  25  29  30  31  32 0
 6-311+G(2d,p)
 ****
 33  36  37 0
 6-311+G(2d,p)
 ****
 1  2  13  14  15  16  17  18  19  20  21  23  24  26 0
 3-21G
 ****
 27  28  34  35  38  39  40  41  42  43  44  45  46  47  48 0
 3-21G
 ****


