%nproc=1
%NoSave
%Mem=1900MB
#P OB98/GEN NMR

erre ene a

0 1
  C     -301.398     533.903     280.314
  O     -300.010     533.714     280.139
  H     -301.558     534.559     281.171
  H     -301.888     532.945     280.512
  H     -301.842     534.370     279.427
  P     -299.491     532.892     278.863
  C     -300.148     530.651     277.770
  O     -300.576     531.745     278.578
  C     -301.360     529.839     277.313
  O     -302.063     529.300     278.454
  C     -302.396     530.655     276.534
  O     -301.950     530.901     275.214
  C     -303.612     529.743     276.653
  O     -303.535     528.660     275.711
  C     -303.466     529.219     278.102
  N     -304.297     529.958     279.060
  C     -305.660     529.657     279.035
  O     -306.164     528.844     278.265
  N     -306.435     530.381     279.912
  C     -305.999     531.400     280.709
  O     -306.758     532.159     281.306
  C     -304.546     531.608     280.744
  C     -303.772     530.894     279.926
  O     -298.075     532.423     278.924
  O     -299.722     533.907     277.644
  H     -298.875     534.325     277.409
  H     -304.305     528.087     275.885
  H     -307.430     530.215     279.866
  H     -304.154     532.364     281.418
  H     -302.700     531.058     279.910
  H     -303.741     528.156     278.153
  H     -304.547     530.271     276.462
  H     -302.605     531.595     277.061
  H     -301.002     528.996     276.708
  H     -299.489     530.014     278.359
  H     -299.598     531.046     276.910
  P     -302.163     532.332     274.531
  C     -303.781     533.440     272.878
  O     -303.428     532.241     273.544
  O     -300.936     532.923     273.905
  O     -302.699     533.270     275.721
  H     -302.132     534.065     275.783
  H     -304.631     533.263     272.252
  H     -302.959     533.770     272.278
  H     -304.020     534.192     273.600

 6  7  8  9  10  11  12  13  14  15  16  27  31  32  33  34  35 0
 6-311+G(2d,p)
 ****
 36  37 0
 6-311+G(2d,p)
 ****
 1  2  3  4  5  17  18  19  20  21  22  23  24  25 0
 3-21G
 ****
 26  28  29  30  38  39  40  41  42  43  44  45 0
 3-21G
 ****


