%nproc=1
%NoSave
%Mem=1900MB
#P OB98/GEN NMR

erre ene a

0 1
  C      589.652    -541.261     -94.527
  O      588.602    -540.841     -93.676
  H      590.427    -541.730     -93.918
  H      590.081    -540.397     -95.046
  H      589.283    -541.991     -95.259
  P      587.275    -540.278     -94.382
  C      587.096    -538.228     -96.016
  O      587.561    -538.742     -94.777
  C      587.920    -537.004     -96.409
  O      589.302    -537.343     -96.624
  C      587.490    -536.369     -97.725
  O      586.250    -535.700     -97.633
  C      588.673    -535.444     -97.983
  O      588.578    -534.249     -97.197
  C      589.862    -536.324     -97.510
  N      590.602    -536.916     -98.607
  C      591.319    -536.013     -99.408
  O      591.298    -534.802     -99.153
  N      592.009    -536.498    -100.499
  C      592.005    -537.768    -100.742
  N      592.698    -538.195    -101.839
  C      591.289    -538.758     -99.911
  C      590.611    -538.265     -98.876
  O      586.257    -540.147     -93.154
  O      586.767    -541.094     -95.528
  H      589.298    -533.659     -97.506
  H      586.609    -539.624     -92.413
  H      591.328    -539.816    -100.156
  H      590.062    -538.924     -98.216
  H      590.556    -535.733     -96.894
  H      588.731    -535.138     -99.025
  H      587.475    -537.130     -98.519
  H      587.868    -536.281     -95.580
  H      593.162    -537.481    -102.397
  H      586.033    -537.981     -95.964
  H      592.744    -539.150    -102.150
  H      587.213    -539.018     -96.766
  P      585.520    -535.154     -98.957
  C      586.236    -533.441    -100.733
  O      586.272    -533.795     -99.357
  O      584.039    -535.039     -98.856
  O      586.019    -536.171    -100.096
  H      586.984    -536.194    -100.225
  H      586.766    -532.523    -100.879
  H      585.219    -533.319    -101.043
  H      586.695    -534.215    -101.312

 6  7  8  9  10  11  12  13  14  15  16  26  30  31  32  33  35 0
 6-311+G(2d,p)
 ****
 37  38 0
 6-311+G(2d,p)
 ****
 1  2  3  4  5  17  18  19  20  21  22  23  24  25 0
 3-21G
 ****
 27  28  29  34  36  39  40  41  42  43  44  45  46 0
 3-21G
 ****


