%nproc=1
%NoSave
%Mem=1900MB
#P OB98/GEN NMR

erre ene a

0 1
  C       62.987     420.494     345.392
  O       62.514     419.910     344.189
  H       63.674     419.794     345.873
  H       62.160     420.698     346.077
  H       63.523     421.416     345.170
  P       61.282     420.616     343.443
  C       59.863     419.668     345.382
  O       59.969     419.852     343.972
  C       58.404     419.620     345.832
  O       58.319     419.433     347.261
  C       57.624     420.898     345.554
  O       57.418     421.184     344.189
  C       56.420     420.741     346.467
  O       55.405     419.925     345.892
  C       57.056     420.013     347.687
  N       57.226     420.897     348.830
  C       56.547     420.534     349.987
  O       55.811     419.547     350.065
  N       56.698     421.370     351.060
  C       57.421     422.533     351.072
  O       57.509     423.251     352.065
  C       58.093     422.887     349.814
  C       57.970     422.059     348.762
  O       61.383     420.682     341.947
  O       61.172     422.050     344.144
  H       54.775     419.702     346.600
  H       60.615     422.669     343.612
  H       56.220     421.117     351.912
  H       58.664     423.804     349.784
  H       58.458     422.294     347.822
  H       56.423     419.164     347.997
  H       55.967     421.699     346.723
  H       58.207     421.750     345.949
  H       57.924     418.753     345.353
  H       60.366     420.520     345.867
  H       60.382     418.747     345.666
  P       57.671     422.619     343.533
  C       55.544     422.170     342.075
  O       56.864     422.688     342.144
  O       59.068     423.136     343.560
  O       56.778     423.575     344.485
  H       57.242     424.437     344.548
  H       55.162     422.298     341.084
  H       54.919     422.693     342.769
  H       55.556     421.129     342.321

 6  7  8  9  10  11  12  13  14  15  16  26  31  32  33  34  35 0
 6-311+G(2d,p)
 ****
 36  37 0
 6-311+G(2d,p)
 ****
 1  2  3  4  5  17  18  19  20  21  22  23  24  25 0
 3-21G
 ****
 27  28  29  30  38  39  40  41  42  43  44  45 0
 3-21G
 ****


