%nproc=1
%NoSave
%Mem=1900MB
#P OB98/GEN NMR

erre ene a

0 1
  C     -202.925     -89.406      72.503
  O     -202.308     -88.609      73.496
  P     -200.761     -88.796      73.853
  C     -199.360     -90.317      75.369
  O     -200.629     -90.119      74.758
  C     -199.259     -91.703      76.002
  O     -199.783     -92.692      75.072
  C     -197.831     -92.139      76.373
  O     -197.938     -92.937      77.558
  C     -197.433     -93.015      75.198
  O     -196.365     -93.904      75.509
  C     -198.765     -93.701      74.906
  N     -198.198     -97.915      72.064
  C     -198.006     -97.686      73.380
  N     -198.154     -96.529      74.058
  C     -198.543     -95.542      73.235
  C     -198.747     -95.616      71.866
  C     -198.574     -96.881      71.273
  N     -198.799     -97.136      69.938
  N     -199.084     -94.373      71.361
  C     -199.080     -93.570      72.404
  N     -198.825     -94.247      73.568
  O     -200.084     -87.590      74.415
  O     -200.094     -89.242      72.467
  H     -195.568     -93.375      75.701
  H     -199.580     -88.500      72.095
  H     -197.704     -98.549      73.970
  H     -199.257     -92.503      72.380
  H     -198.972     -94.515      75.613
  H     -197.117     -92.383      74.357
  H     -197.140     -91.305      76.530
  H     -199.906     -91.725      76.890
  H     -199.235     -89.553      76.145
  H     -198.773     -98.104      69.647
  H     -199.332     -96.464      69.391
  H     -198.565     -90.186      74.622
  P     -196.826     -92.813      78.706
  C     -194.394     -93.548      79.003
  O     -195.465     -93.385      78.091
  O     -197.219     -93.378      80.033
  O     -196.552     -91.236      78.793
  H     -196.113     -91.027      79.635
  H     -193.903     -92.580      79.168
  H     -193.667     -94.244      78.577
  H     -194.746     -93.944      79.962
  H     -203.955     -89.130      72.413
  H     -202.855     -90.437      72.779
  H     -202.432     -89.253      71.566

 3  4  5  6  7  8  9  10  11  12  22  25  29  30  31  32 0
 6-311+G(2d,p)
 ****
 33  36  37 0
 6-311+G(2d,p)
 ****
 1  2  13  14  15  16  17  18  19  20  21  23  24  26 0
 3-21G
 ****
 27  28  34  35  38  39  40  41  42  43  44  45  46  47  48 0
 3-21G
 ****


