%nproc=1
%NoSave
%Mem=1900MB
#P OB98/GEN NMR

erre ene a

0 1
  C     -195.280      17.257     -78.388
  O     -195.756      18.017     -79.482
  H     -196.048      16.535     -78.101
  H     -195.075      17.912     -77.536
  H     -194.373      16.717     -78.670
  P     -194.787      19.181     -80.013
  C     -193.266      17.549     -81.332
  O     -193.360      18.494     -80.277
  C     -191.805      17.216     -81.622
  O     -191.706      16.083     -82.512
  C     -191.017      18.351     -82.267
  O     -190.544      19.260     -81.287
  C     -189.894      17.582     -82.947
  O     -188.862      17.229     -82.001
  C     -190.622      16.327     -83.449
  N     -191.457      13.774     -87.723
  C     -190.826      13.382     -86.560
  N     -190.316      12.130     -86.538
  N     -190.694      14.150     -85.511
  C     -191.199      15.392     -85.693
  C     -191.844      15.902     -86.797
  C     -192.031      15.022     -87.930
  O     -192.652      15.283     -88.956
  N     -192.229      17.203     -86.590
  C     -191.787      17.487     -85.380
  N     -191.151      16.422     -84.796
  O     -194.529      20.076     -78.709
  O     -195.328      20.004     -81.132
  H     -188.167      16.727     -82.460
  H     -194.499      21.014     -78.975
  H     -191.556      13.130     -88.487
  H     -191.911      18.438     -84.881
  H     -189.974      15.444     -83.430
  H     -189.410      18.178     -83.721
  H     -190.130      11.615     -87.386
  H     -191.617      18.865     -83.027
  H     -189.791      11.872     -85.713
  H     -191.342      16.918     -80.672
  H     -193.727      17.974     -82.230
  H     -193.803      16.639     -81.051
  P     -189.842      20.611     -81.785
  C     -191.886      22.163     -81.390
  O     -190.989      21.592     -82.332
  O     -189.079      20.147     -83.114
  O     -188.892      21.216     -80.808
  H     -188.122      20.081     -82.941
  H     -192.588      22.789     -81.900
  H     -191.336      22.747     -80.682
  H     -192.410      21.383     -80.878

 6  7  8  9  10  11  12  13  14  15  26  29  33  34 0
 6-311+G(2d,p)
 ****
 36  38  39  40  41 0
 6-311+G(2d,p)
 ****
 1  2  3  4  5  16  17  18  19  20  21  22  23  24  25 0
 3-21G
 ****
 27  28  30  31  32  35  37  42  43  44  45  46  47 0
 3-21G
 ****
 48  49 0
 3-21G
 ****


