%nproc=1
%NoSave
%Mem=1900MB
#P OB98/GEN NMR

erre ene a

0 1
  C       87.465      69.335    -170.246
  O       87.694      69.039    -168.868
  P       87.172      67.641    -168.281
  C       89.316      66.237    -168.549
  O       88.422      66.869    -167.638
  C       89.977      65.019    -167.904
  O       90.678      64.216    -168.873
  C       91.015      65.383    -166.856
  O       90.397      65.832    -165.662
  C       91.790      64.081    -166.735
  O       91.117      63.159    -165.862
  C       91.761      63.550    -168.186
  N       93.024      63.722    -168.888
  C       94.134      63.092    -168.315
  O       94.021      62.472    -167.259
  N       95.349      63.197    -168.951
  C       95.444      63.877    -170.051
  N       96.670      63.943    -170.637
  C       94.300      64.565    -170.680
  C       93.134      64.453    -170.047
  O       86.327      66.827    -169.206
  O       86.339      68.092    -166.984
  H       91.227      63.516    -164.957
  H       85.619      67.447    -166.832
  H       94.430      65.113    -171.602
  H       92.242      64.931    -170.437
  H       91.518      62.479    -168.194
  H       92.792      64.239    -166.326
  H       91.675      66.171    -167.247
  H       89.188      64.403    -167.446
  H       97.441      63.472    -170.180
  H       90.079      66.952    -168.866
  H       96.837      64.404    -171.521
  H       88.759      65.953    -169.448
  P       90.941      67.190    -165.005
  C       90.861      69.086    -166.772
  O       90.196      68.412    -165.722
  O       92.438      67.286    -165.572
  O       90.927      67.213    -163.512
  H       93.015      67.698    -164.904
  H       90.124      69.656    -167.343
  H       91.360      68.384    -167.445
  H       91.597      69.780    -166.356
  H       87.871      70.298    -170.476
  H       86.413      69.336    -170.440
  H       87.939      68.593    -170.854

 3  4  5  6  7  8  9  10  11  12  13  23  27  28  29  30  32 0
 6-311+G(2d,p)
 ****
 34  35 0
 6-311+G(2d,p)
 ****
 1  2  14  15  16  17  18  19  20  21  22  24  25  26 0
 3-21G
 ****
 31  33  36  37  38  39  40  41  42  43  44  45  46 0
 3-21G
 ****


