%nproc=1
%NoSave
%Mem=1900MB
#P OB98/GEN NMR

erre ene a

0 1
  C     -305.691    -210.202      26.105
  O     -306.041    -211.408      26.774
  P     -305.091    -211.920      27.961
  C     -307.204    -212.380      29.390
  O     -305.976    -212.888      28.887
  C     -307.677    -213.173      30.609
  O     -308.035    -214.521      30.184
  C     -306.629    -213.318      31.717
  O     -307.335    -213.342      32.965
  C     -306.033    -214.690      31.456
  O     -305.393    -215.230      32.609
  C     -307.278    -215.444      30.995
  N     -305.290    -220.152      31.203
  C     -305.506    -219.226      32.162
  N     -306.043    -217.991      32.030
  C     -306.365    -217.750      30.747
  C     -306.172    -218.585      29.661
  C     -305.607    -219.844      29.922
  N     -305.396    -220.798      28.950
  N     -306.605    -217.976      28.500
  C     -307.050    -216.795      28.880
  N     -306.948    -216.626      30.231
  O     -304.910    -210.606      28.860
  O     -303.773    -212.470      27.531
  H     -304.616    -214.678      32.817
  H     -303.987    -210.286      28.799
  H     -305.216    -219.512      33.171
  H     -307.449    -216.035      28.218
  H     -307.910    -215.750      31.838
  H     -305.288    -214.621      30.655
  H     -305.870    -212.523      31.726
  H     -308.588    -212.704      30.998
  H     -307.963    -212.456      28.608
  H     -305.118    -221.720      29.242
  H     -305.804    -220.650      28.033
  H     -307.081    -211.322      29.650
  P     -306.572    -212.739      34.244
  C     -308.771    -212.691      35.626
  O     -307.434    -213.158      35.528
  O     -306.822    -211.163      34.109
  O     -305.118    -213.070      34.299
  H     -306.092    -210.677      34.534
  H     -309.369    -213.449      36.138
  H     -309.208    -212.499      34.641
  H     -308.784    -211.770      36.212
  H     -306.414    -209.993      25.345
  H     -304.725    -210.310      25.658
  H     -305.671    -209.397      26.809

 3  4  5  6  7  8  9  10  11  12  22  25  29  30  31  32 0
 6-311+G(2d,p)
 ****
 33  36  37 0
 6-311+G(2d,p)
 ****
 1  2  13  14  15  16  17  18  19  20  21  23  24  26 0
 3-21G
 ****
 27  28  34  35  38  39  40  41  42  43  44  45  46  47  48 0
 3-21G
 ****


