%nproc=1
%NoSave
%Mem=1900MB
#P OB98/GEN NMR

erre ene a

0 1
  C     -268.712      25.467    -220.949
  O     -267.874      25.800    -222.041
  P     -268.401      26.709    -223.247
  C     -267.634      28.840    -222.039
  O     -268.723      28.168    -222.662
  C     -267.095      29.972    -222.917
  O     -268.110      31.016    -223.024
  C     -265.810      30.627    -222.382
  O     -264.997      30.930    -223.527
  C     -266.308      31.895    -221.733
  O     -265.295      32.885    -221.617
  C     -267.471      32.261    -222.663
  N     -268.418      33.177    -222.038
  C     -269.191      33.971    -222.896
  O     -268.970      33.968    -224.107
  N     -270.192      34.746    -222.356
  C     -270.273      34.866    -221.063
  N     -271.314      35.589    -220.564
  C     -269.313      34.238    -220.129
  C     -268.449      33.384    -220.680
  O     -269.500      26.107    -224.059
  O     -267.097      26.960    -224.149
  H     -267.295      26.710    -225.074
  H     -265.592      33.571    -220.976
  H     -269.342      34.464    -219.078
  H     -267.716      32.854    -220.076
  H     -267.099      32.714    -223.590
  H     -266.681      31.672    -220.722
  H     -265.251      29.964    -221.709
  H     -266.935      29.579    -223.929
  H     -271.979      35.971    -221.229
  H     -266.834      28.110    -221.873
  H     -271.644      35.477    -219.603
  H     -267.944      29.223    -221.066
  P     -263.398      30.960    -223.337
  C     -263.002      28.445    -223.839
  O     -262.923      29.494    -222.896
  O     -263.258      31.786    -221.960
  O     -262.608      31.636    -224.408
  H     -262.377      32.213    -221.933
  H     -262.709      27.507    -223.348
  H     -262.321      28.634    -224.676
  H     -264.027      28.339    -224.213
  H     -268.170      24.856    -220.257
  H     -269.566      24.930    -221.306
  H     -269.032      26.363    -220.459

 3  4  5  6  7  8  9  10  11  12  13  24  27  28  29  30  32 0
 6-311+G(2d,p)
 ****
 34  35 0
 6-311+G(2d,p)
 ****
 1  2  14  15  16  17  18  19  20  21  22  23  25  26 0
 3-21G
 ****
 31  33  36  37  38  39  40  41  42  43  44  45  46 0
 3-21G
 ****


