%nproc=1
%NoSave
%Mem=1900MB
#P OB98/GEN NMR

erre ene a

0 1
  C     -699.057     412.468     376.491
  O     -699.792     412.314     375.287
  P     -700.587     410.950     374.991
  C     -702.916     410.367     374.056
  O     -702.033     411.412     374.464
  C     -704.377     410.815     374.189
  O     -704.738     410.969     375.584
  C     -704.689     412.151     373.529
  O     -704.792     412.011     372.127
  C     -705.981     412.530     374.225
  O     -707.104     411.890     373.619
  C     -705.752     411.988     375.661
  N     -705.390     413.043     376.606
  C     -706.355     414.029     376.813
  O     -707.426     413.992     376.207
  N     -706.079     415.053     377.694
  C     -704.915     415.106     378.265
  N     -704.691     416.153     379.119
  C     -703.853     414.101     378.044
  C     -704.163     413.119     377.206
  O     -700.592     409.955     376.104
  O     -699.882     410.411     373.661
  H     -707.903     412.291     374.031
  H     -698.985     410.027     373.853
  H     -702.902     414.181     378.546
  H     -703.434     412.332     376.978
  H     -706.663     411.504     376.033
  H     -706.164     413.615     374.194
  H     -703.907     412.890     373.791
  H     -705.014     410.029     373.756
  H     -705.433     416.829     379.219
  H     -702.751     409.502     374.701
  H     -703.813     416.303     379.587
  H     -702.688     410.083     373.023
  P     -704.997     413.298     371.200
  C     -704.411     413.892     368.765
  O     -704.042     413.133     369.921
  O     -704.896     414.618     371.905
  O     -706.465     413.090     370.592
  H     -706.947     413.945     370.638
  H     -703.534     413.951     368.106
  H     -704.732     414.886     369.036
  H     -705.213     413.374     368.249
  H     -698.599     413.435     376.508
  H     -698.300     411.714     376.545
  H     -699.718     412.371     377.327

 3  4  5  6  7  8  9  10  11  12  13  23  27  28  29  30  32 0
 6-311+G(2d,p)
 ****
 34  35 0
 6-311+G(2d,p)
 ****
 1  2  14  15  16  17  18  19  20  21  22  24  25  26 0
 3-21G
 ****
 31  33  36  37  38  39  40  41  42  43  44  45  46 0
 3-21G
 ****


