%nproc=1
%NoSave
%Mem=1900MB
#P OB98/GEN NMR

erre ene a

0 1
  C       -7.414     199.092     -17.160
  O       -6.991     198.772     -18.470
  H       -6.567     199.516     -16.613
  H       -7.762     198.201     -16.632
  H       -8.213     199.838     -17.195
  P       -7.978     197.902     -19.391
  C       -6.957     195.992     -17.984
  O       -8.120     196.484     -18.647
  C       -6.898     194.464     -18.044
  O       -8.151     193.901     -17.607
  C       -6.682     193.914     -19.445
  O       -5.398     194.167     -19.974
  C       -7.172     192.479     -19.313
  O       -6.174     191.582     -18.837
  C       -8.294     192.622     -18.257
  N       -9.620     192.454     -18.840
  C       -9.878     191.211     -19.409
  O       -9.052     190.299     -19.452
  N      -11.114     191.058     -19.972
  C      -12.074     192.023     -20.064
  O      -13.149     191.835     -20.620
  C      -11.735     193.324     -19.468
  C      -10.540     193.479     -18.892
  O       -7.594     197.792     -20.835
  O       -9.409     198.577     -19.156
  H       -5.415     191.647     -19.448
  H      -10.048     198.310     -19.860
  H      -11.323     190.161     -20.380
  H      -12.471     194.114     -19.526
  H      -10.265     194.431     -18.446
  H       -8.175     191.862     -17.473
  H       -7.524     192.087     -20.270
  H       -7.387     194.416     -20.119
  H       -6.114     194.122     -17.360
  H       -7.013     196.309     -16.938
  H       -6.062     196.428     -18.439
  P       -5.152     194.937     -21.352
  C       -6.872     193.209     -22.251
  O       -6.316     194.512     -22.378
  O       -3.745     194.992     -21.850
  O       -5.584     196.441     -20.955
  H       -5.010     197.051     -21.457
  H       -7.629     193.070     -22.995
  H       -7.304     193.099     -21.278
  H       -6.102     192.478     -22.384

 6  7  8  9  10  11  12  13  14  15  16  26  31  32  33  34  35 0
 6-311+G(2d,p)
 ****
 36  37 0
 6-311+G(2d,p)
 ****
 1  2  3  4  5  17  18  19  20  21  22  23  24  25 0
 3-21G
 ****
 27  28  29  30  38  39  40  41  42  43  44  45 0
 3-21G
 ****


