%nproc=1
%NoSave
%Mem=1900MB
#P OB98/GEN NMR

erre ene a

0 1
  C     -194.189    -330.478    -137.311
  O     -194.383    -331.289    -138.455
  H     -193.433    -330.948    -136.678
  H     -195.123    -330.410    -136.749
  H     -193.850    -329.481    -137.588
  P     -195.197    -330.686    -139.697
  C     -193.351    -329.023    -140.410
  O     -194.676    -329.184    -139.920
  C     -193.326    -328.060    -141.606
  O     -193.822    -326.770    -141.177
  C     -191.899    -327.845    -142.120
  O     -191.874    -327.525    -143.510
  C     -191.435    -326.633    -141.326
  O     -190.366    -325.927    -141.957
  C     -192.728    -325.832    -141.213
  N     -190.788    -321.777    -138.811
  C     -190.310    -322.441    -139.925
  N     -189.163    -321.960    -140.464
  N     -190.889    -323.494    -140.439
  C     -191.978    -323.908    -139.748
  C     -192.534    -323.339    -138.623
  C     -191.904    -322.155    -138.080
  O     -192.277    -321.537    -137.083
  N     -193.638    -324.048    -138.202
  C     -193.744    -325.035    -139.074
  N     -192.774    -324.977    -140.042
  O     -196.672    -330.458    -139.107
  O     -195.222    -331.541    -140.927
  H     -189.553    -326.452    -141.822
  H     -197.322    -330.429    -139.831
  H     -190.320    -320.951    -138.471
  H     -194.511    -325.803    -139.046
  H     -192.865    -325.193    -142.090
  H     -191.064    -326.982    -140.357
  H     -188.593    -321.280    -139.986
  H     -191.252    -328.701    -141.941
  H     -188.644    -322.608    -141.069
  H     -194.009    -328.426    -142.388
  H     -193.001    -330.014    -140.707
  H     -192.692    -328.668    -139.613
  P     -192.226    -328.679    -144.570
  C     -194.755    -328.148    -145.153
  O     -193.793    -328.979    -144.538
  O     -191.574    -329.990    -143.935
  O     -191.719    -328.415    -145.960
  H     -190.857    -330.324    -144.505
  H     -195.732    -328.556    -144.995
  H     -194.558    -328.091    -146.203
  H     -194.704    -327.168    -144.727

 6  7  8  9  10  11  12  13  14  15  26  29  33  34 0
 6-311+G(2d,p)
 ****
 36  38  39  40  41 0
 6-311+G(2d,p)
 ****
 1  2  3  4  5  16  17  18  19  20  21  22  23  24  25 0
 3-21G
 ****
 27  28  30  31  32  35  37  42  43  44  45  46  47 0
 3-21G
 ****
 48  49 0
 3-21G
 ****


