%nproc=1
%NoSave
%Mem=1900MB
#P OB98/GEN NMR

erre ene a

0 1
  C     -166.115    -259.003     170.172
  O     -165.376    -260.214     169.992
  P     -165.019    -260.622     168.474
  C     -162.605    -261.265     169.206
  O     -163.795    -261.657     168.530
  C     -162.185    -262.333     170.215
  O     -163.063    -262.349     171.353
  C     -162.214    -263.754     169.668
  O     -161.064    -264.042     168.887
  C     -162.208    -264.566     170.957
  O     -160.857    -264.695     171.444
  C     -163.040    -263.690     171.905
  N     -166.589    -265.192     175.195
  C     -165.285    -264.800     175.418
  N     -164.877    -264.778     176.707
  N     -164.456    -264.458     174.469
  C     -165.011    -264.496     173.233
  C     -166.287    -264.869     172.882
  C     -167.188    -265.276     173.943
  O     -168.339    -265.666     173.795
  N     -166.485    -264.775     171.528
  C     -165.340    -264.317     171.062
  N     -164.409    -264.147     172.058
  O     -164.349    -259.287     167.896
  O     -166.200    -261.051     167.671
  H     -160.390    -263.865     171.220
  H     -164.472    -259.244     166.927
  H     -167.184    -265.454     175.965
  H     -165.138    -264.089     170.024
  H     -162.588    -263.619     172.901
  H     -162.593    -265.580     170.821
  H     -165.484    -264.959     177.495
  H     -163.145    -263.944     169.115
  H     -163.935    -264.457     176.894
  H     -161.171    -262.088     170.562
  H     -162.771    -260.321     169.727
  H     -161.819    -261.090     168.466
  P     -161.309    -264.566     167.390
  C     -159.465    -263.002     166.448
  O     -159.922    -264.328     166.618
  O     -162.292    -263.464     166.774
  O     -161.884    -265.941     167.302
  H     -162.855    -263.860     166.082
  H     -159.597    -262.417     167.362
  H     -160.011    -262.526     165.627
  H     -158.400    -263.029     166.198
  H     -166.288    -258.843     171.216
  H     -167.053    -259.078     169.662
  H     -165.557    -258.182     169.773

 3  4  5  6  7  8  9  10  11  12  23  26  30  31  33  0
 6-311+G(2d,p)
 ****
 35  36  37  38 0
 6-311+G(2d,p)
 ****
 1  2  13  14  15  16  17  18  19  20  21  22  24  25  27  28  29 0
 3-21G
 ****
 32  34  39  40  41  42  43  44  45  46  47  48  49 0
 3-21G
 ****


