%nproc=1
%NoSave
%Mem=1900MB
#P OB98/GEN NMR

erre ene a

0 1
  C        0.482    -440.269    -898.410
  O        1.144    -441.514    -898.260
  P        2.699    -441.593    -898.670
  C        4.875    -442.433    -897.520
  O        3.458    -442.244    -897.420
  C        5.465    -442.646    -896.140
  O        5.375    -441.453    -895.330
  C        4.767    -443.733    -895.320
  O        5.180    -445.045    -895.670
  C        5.244    -443.411    -893.900
  O        6.561    -443.912    -893.700
  C        5.255    -441.859    -893.940
  N        3.038    -440.346    -889.640
  C        4.352    -440.710    -889.880
  N        5.165    -440.754    -888.820
  N        4.819    -441.039    -891.070
  C        3.889    -440.962    -892.050
  C        2.546    -440.592    -891.920
  C        2.045    -440.250    -890.620
  O        0.886    -439.968    -890.320
  N        1.908    -440.634    -893.140
  C        2.859    -441.023    -894.000
  N        4.035    -441.271    -893.360
  O        3.163    -440.051    -898.620
  O        2.976    -442.207    -900.000
  H        6.853    -443.594    -892.820
  H        3.993    -439.944    -899.110
  H        2.739    -440.116    -888.730
  H        2.712    -441.144    -895.060
  H        6.127    -441.447    -893.400
  H        4.606    -443.832    -893.130
  H        4.856    -440.581    -887.860
  H        3.673    -443.640    -895.370
  H        6.128    -441.091    -888.940
  H        6.550    -442.911    -896.250
  H        5.341    -441.542    -897.980
  H        5.084    -443.282    -898.160
  P        4.080    -446.202    -895.610
  C        3.978    -448.472    -896.890
  O        4.360    -447.122    -896.920
  O        2.722    -445.430    -895.980
  O        3.991    -446.914    -894.310
  H        1.959    -445.896    -895.610
  H        4.016    -448.863    -897.930
  H        2.964    -448.595    -896.490
  H        4.695    -449.044    -896.290
  H       -0.538    -440.368    -898.101
  H        0.516    -439.968    -899.436
  H        0.968    -439.532    -897.806

 3  4  5  6  7  8  9  10  11  12  23  26  30  31 0
 6-311+G(2d,p)
 ****
 33  35  36  37  38 0
 6-311+G(2d,p)
 ****
 1  2  13  14  15  16  17  18  19  20  21  22  24  25 0
 3-21G
 ****
 27  28  29  32  34  39  40  41  42  43  44  45  46  47  48  49 0
 3-21G
 ****


