%nproc=1
%NoSave
%Mem=1900MB
#P OB98/GEN NMR

erre ene a

0 1
  C       45.936     227.768     174.195
  O       45.895     227.708     175.606
  H       46.358     226.843     173.792
  H       44.917     227.884     173.817
  H       46.533     228.623     173.870
  P       47.305     227.518     176.350
  C       47.145     230.002     177.055
  O       47.955     228.981     176.489
  C       48.006     230.950     177.888
  O       48.495     230.220     179.043
  C       49.219     231.520     177.134
  O       49.276     232.944     177.278
  C       50.415     230.914     177.845
  O       51.534     231.791     177.895
  C       49.861     230.610     179.231
  N       53.319     229.665     182.854
  C       52.494     230.717     182.660
  N       51.528     230.865     181.733
  C       51.430     229.763     180.969
  C       52.185     228.605     181.062
  C       53.185     228.588     182.048
  N       54.063     227.538     182.210
  N       51.801     227.690     180.100
  C       50.860     228.303     179.409
  N       50.613     229.563     179.888
  O       48.212     226.805     175.236
  O       47.241     226.714     177.603
  H       51.193     232.689     178.066
  H       48.492     225.933     175.573
  H       52.633     231.555     183.338
  H       50.363     227.904     178.535
  H       49.871     231.497     179.877
  H       50.714     229.999     177.323
  H       49.214     231.263     176.071
  H       47.371     231.761     178.263
  H       46.384     229.550     177.701
  H       54.822     227.657     182.861
  H       54.038     226.783     181.540
  H       46.644     230.548     176.250
  P       48.633     233.805     176.079
  C       46.417     234.633     177.151
  O       47.034     233.745     176.227
  O       48.938     232.911     174.787
  O       49.212     235.173     175.944
  H       49.434     233.435     174.130
  H       45.358     234.479     177.141
  H       46.634     235.643     176.874
  H       46.795     234.444     178.134

 6  7  8  9  10  11  12  13  14  15  25  28  32  33  34  35 0
 6-311+G(2d,p)
 ****
 36  39  40 0
 6-311+G(2d,p)
 ****
 1  2  3  4  5  16  17  18  19  20  21  22  23  24 0
 3-21G
 ****
 26  27  29  30  31  37  38  41  42  43  44  45  46  47  48 0
 3-21G
 ****


