%nproc=1
%NoSave
%Mem=1900MB
#P OB98/GEN NMR

erre ene a

0 1
  C     -439.741     553.500    -621.793
  O     -439.112     553.949    -622.987
  P     -439.111     555.519    -623.306
  C     -436.520     555.939    -623.660
  O     -437.701     556.153    -622.904
  C     -435.622     554.937    -622.920
  O     -436.306     553.675    -622.754
  C     -434.320     554.652    -623.646
  O     -433.302     555.592    -623.322
  C     -434.006     553.244    -623.185
  O     -433.449     553.260    -621.857
  C     -435.414     552.603    -623.176
  N     -435.928     552.029    -624.439
  C     -435.449     550.797    -624.879
  O     -434.617     550.120    -624.278
  N     -435.997     550.314    -626.046
  C     -437.052     550.853    -626.718
  O     -437.529     550.361    -627.723
  C     -437.615     552.080    -626.133
  C     -437.029     552.605    -625.050
  O     -440.120     556.126    -622.217
  O     -439.526     555.868    -624.699
  H     -434.151     553.547    -621.251
  H     -440.908     556.505    -622.658
  H     -435.613     549.464    -626.411
  H     -438.480     552.515    -626.608
  H     -437.441     553.514    -624.610
  H     -435.476     551.816    -622.413
  H     -433.249     552.768    -623.815
  H     -434.484     554.614    -624.734
  H     -435.403     555.343    -621.919
  H     -435.984     556.877    -623.816
  H     -436.785     555.558    -624.652
  P     -433.213     556.965    -624.135
  C     -433.081     558.584    -622.155
  O     -433.893     558.071    -623.194
  O     -433.700     556.934    -625.542
  O     -431.650     557.343    -624.042
  H     -431.176     557.044    -624.852
  H     -433.600     559.442    -621.693
  H     -432.121     558.934    -622.544
  H     -432.921     557.821    -621.400
  H     -439.657     552.435    -621.724
  H     -440.775     553.776    -621.809
  H     -439.264     553.950    -620.948

 3  4  5  6  7  8  9  10  11  12  13  23  28  29  30  31  32 0
 6-311+G(2d,p)
 ****
 33  34 0
 6-311+G(2d,p)
 ****
 1  2  14  15  16  17  18  19  20  21  22  24  25  26  27 0
 3-21G
 ****
 35  36  37  38  39  40  41  42  43  44  45 0
 3-21G
 ****


