%nproc=1
%NoSave
%Mem=1900MB
#P OB98/GEN NMR

erre ene a

0 1
  C      142.461     273.745     277.539
  O      142.402     274.832     278.439
  H      143.378     273.794     276.945
  H      142.462     272.811     278.110
  H      141.589     273.754     276.877
  P      142.428     276.303     277.799
  C      139.834     276.094     277.763
  O      141.011     276.462     277.059
  C      138.616     276.368     276.888
  O      137.437     275.772     277.476
  C      138.296     277.849     276.726
  O      139.086     278.472     275.727
  C      136.836     277.779     276.311
  O      136.741     277.391     274.929
  C      136.311     276.654     277.217
  N      132.720     279.547     279.439
  C      132.948     279.229     278.148
  N      133.914     278.433     277.641
  C      134.686     277.940     278.620
  C      134.572     278.173     279.981
  C      133.532     279.025     280.388
  N      133.318     279.379     281.701
  N      135.565     277.505     280.672
  C      136.255     276.871     279.745
  N      135.782     277.128     278.486
  O      143.457     276.170     276.581
  O      142.766     277.416     278.734
  H      135.798     277.225     274.744
  H      143.720     277.054     276.260
  H      132.267     279.670     277.427
  H      137.103     276.228     279.930
  H      135.525     276.059     276.739
  H      136.322     278.737     276.414
  H      138.371     278.383     277.682
  H      138.778     275.891     275.914
  H      139.769     276.687     278.682
  H      132.644     280.111     281.876
  H      134.003     279.117     282.394
  H      139.882     275.034     278.023
  P      138.699     279.974     275.307
  C      140.334     280.982     277.057
  O      138.993     280.892     276.591
  O      137.104     279.929     275.243
  O      139.309     280.437     274.023
  H      136.765     280.542     274.562
  H      140.372     281.624     277.912
  H      140.955     281.382     276.283
  H      140.684     280.008     277.327

 6  7  8  9  10  11  12  13  14  15  25  28  32  33  34  35 0
 6-311+G(2d,p)
 ****
 36  39  40 0
 6-311+G(2d,p)
 ****
 1  2  3  4  5  16  17  18  19  20  21  22  23  24 0
 3-21G
 ****
 26  27  29  30  31  37  38  41  42  43  44  45  46  47 0
 3-21G
 ****
 48 0
 3-21G
 ****


