%nproc=1
%NoSave
%Mem=1900MB
#P OB98/GEN NMR

erre ene a

0 1
  C      -38.621     -44.820      -5.576
  O      -39.336     -45.528      -4.556
  P      -40.772     -44.928      -4.149
  C      -42.138     -47.134      -4.023
  O      -41.559     -46.049      -3.308
  C      -41.175     -48.317      -4.142
  O      -40.716     -48.693      -2.820
  C      -41.775     -49.574      -4.782
  O      -40.768     -50.205      -5.585
  C      -42.043     -50.479      -3.594
  O      -42.110     -51.852      -3.968
  C      -40.859     -50.117      -2.700
  N      -38.509     -51.479       1.565
  C      -37.981     -51.033       0.370
  N      -36.634     -50.963       0.296
  N      -38.706     -50.687      -0.660
  C      -40.039     -50.777      -0.431
  C      -40.685     -51.194       0.711
  C      -39.866     -51.614       1.828
  O      -40.274     -52.068       2.894
  N      -42.050     -51.150       0.561
  C      -42.227     -50.716      -0.671
  N      -41.038     -50.483      -1.315
  O      -41.551     -44.870      -5.546
  O      -40.702     -43.583      -3.508
  H      -42.673     -51.906      -4.763
  H      -41.860     -43.960      -5.717
  H      -37.904     -51.752       2.319
  H      -43.185     -50.577      -1.152
  H      -39.933     -50.582      -3.059
  H      -42.998     -50.202      -3.133
  H      -36.019     -51.152       1.072
  H      -42.672     -49.391      -5.383
  H      -36.229     -50.595      -0.556
  H      -40.295     -47.987      -4.707
  H      -42.418     -46.798      -5.025
  H      -43.053     -47.443      -3.507
  P      -41.216     -50.673      -7.053
  C      -38.923     -50.299      -8.223
  O      -39.888     -51.223      -7.760
  O      -41.503     -49.293      -7.809
  O      -42.394     -51.588      -7.071
  H      -42.158     -49.427      -8.520
  H      -39.114     -49.285      -7.861
  H      -38.934     -50.291      -9.316
  H      -37.935     -50.615      -7.879
  H      -37.687     -45.308      -5.761
  H      -38.441     -43.816      -5.254
  H      -39.201     -44.807      -6.475

 3  4  5  6  7  8  9  10  11  12  23  26  30  31  33  0
 6-311+G(2d,p)
 ****
 35  36  37  38 0
 6-311+G(2d,p)
 ****
 1  2  13  14  15  16  17  18  19  20  21  22  24  25  27  28  29 0
 3-21G
 ****
 32  34  39  40  41  42  43  44  45  46  47  48  49 0
 3-21G
 ****


