%nproc=1
%NoSave
%Mem=1900MB
#P OB98/GEN NMR

erre ene a

0 1
  C      581.358     277.769    -265.054
  O      582.208     278.232    -266.082
  H      581.947     277.165    -264.357
  H      580.567     277.144    -265.472
  H      580.919     278.606    -264.503
  P      581.643     279.307    -267.126
  C      580.119     279.231    -269.203
  O      580.575     278.544    -268.045
  C      580.014     278.259    -270.378
  O      581.331     277.858    -270.811
  C      579.276     276.967    -270.050
  O      577.878     277.184    -269.996
  C      579.745     276.076    -271.189
  O      579.005     276.350    -272.390
  C      581.220     276.516    -271.336
  N      582.160     275.611    -270.670
  C      582.201     274.306    -271.146
  O      581.477     273.895    -272.050
  N      583.106     273.478    -270.532
  C      583.887     273.800    -269.461
  O      584.644     273.003    -268.913
  C      583.774     275.184    -268.980
  C      582.928     276.013    -269.596
  O      582.671     280.088    -267.876
  O      580.725     280.260    -266.224
  H      579.326     275.718    -273.063
  H      581.209     281.078    -266.012
  H      583.143     272.524    -270.854
  H      584.375     275.474    -268.126
  H      582.829     277.036    -269.252
  H      581.497     276.571    -272.396
  H      579.613     275.013    -270.976
  H      579.641     276.551    -269.104
  H      579.532     278.784    -271.212
  H      580.838     280.023    -269.450
  H      579.148     279.685    -268.990
  P      576.958     276.357    -268.982
  C      576.138     273.945    -268.711
  O      576.995     274.818    -269.439
  O      575.590     276.910    -268.766
  O      577.797     276.350    -267.617
  H      577.389     276.962    -266.975
  H      576.237     272.950    -269.091
  H      575.124     274.269    -268.819
  H      576.409     273.960    -267.676

 6  7  8  9  10  11  12  13  14  15  16  26  31  32  33  34  35 0
 6-311+G(2d,p)
 ****
 36  37 0
 6-311+G(2d,p)
 ****
 1  2  3  4  5  17  18  19  20  21  22  23  24  25 0
 3-21G
 ****
 27  28  29  30  38  39  40  41  42  43  44  45 0
 3-21G
 ****


