%nproc=1
%NoSave
%Mem=1900MB
#P OB98/GEN NMR

erre ene a

0 1
  C      -21.666      26.865     -11.407
  O      -22.791      27.284     -10.662
  H      -20.774      26.967     -10.782
  H      -21.539      27.477     -12.303
  H      -21.774      25.813     -11.689
  P      -24.184      27.472     -11.438
  C      -23.600      29.976     -11.672
  O      -23.996      28.784     -12.347
  C      -23.522      31.155     -12.645
  O      -22.502      30.914     -13.635
  C      -24.800      31.383     -13.436
  O      -25.881      31.857     -12.662
  C      -24.308      32.200     -14.622
  O      -24.252      33.599     -14.363
  C      -22.877      31.646     -14.820
  N      -22.767      30.829     -16.022
  C      -22.220      31.459     -17.134
  O      -21.864      32.637     -17.142
  N      -22.133      30.699     -18.267
  C      -22.577      29.416     -18.404
  O      -22.508      28.801     -19.461
  C      -23.169      28.811     -17.201
  C      -23.237      29.534     -16.080
  O      -25.411      27.503     -10.577
  O      -24.182      26.286     -12.512
  H      -25.174      33.919     -14.315
  H      -25.089      26.129     -12.869
  H      -21.730      31.135     -19.081
  H      -23.535      27.796     -17.274
  H      -23.672      29.110     -15.179
  H      -22.161      32.474     -14.911
  H      -24.951      32.062     -15.496
  H      -25.123      30.418     -13.843
  H      -23.241      32.051     -12.079
  H      -22.610      29.800     -11.239
  H      -24.306      30.193     -10.864
  P      -27.411      31.609     -13.049
  C      -27.806      34.029     -13.910
  O      -27.807      32.639     -14.218
  O      -28.366      31.409     -11.918
  O      -27.312      30.211     -13.849
  H      -28.129      29.709     -13.663
  H      -28.087      34.587     -14.779
  H      -26.826      34.325     -13.598
  H      -28.504      34.220     -13.122

 6  7  8  9  10  11  12  13  14  15  16  26  31  32  33  34  35 0
 6-311+G(2d,p)
 ****
 36  37 0
 6-311+G(2d,p)
 ****
 1  2  3  4  5  17  18  19  20  21  22  23  24  25 0
 3-21G
 ****
 27  28  29  30  38  39  40  41  42  43  44  45 0
 3-21G
 ****


