%nproc=1
%NoSave
%Mem=1900MB
#P OB98/GEN NMR

erre ene a

0 1
  C      396.702    -350.061      70.059
  O      397.010    -351.436      69.896
  H      397.635    -349.496      70.042
  H      396.209    -349.895      71.014
  H      396.057    -349.713      69.245
  P      395.768    -352.449      69.780
  C      396.095    -353.329      67.350
  O      395.365    -352.483      68.219
  C      395.337    -353.502      66.030
  O      394.131    -354.275      66.296
  C      394.906    -352.167      65.405
  O      395.004    -352.264      63.995
  C      393.441    -352.046      65.815
  O      392.682    -351.199      64.970
  C      393.005    -353.515      65.772
  N      391.808    -353.754      66.582
  C      390.663    -353.030      66.254
  O      390.578    -352.261      65.296
  N      389.587    -353.208      67.077
  C      389.541    -354.015      68.179
  O      388.557    -354.131      68.884
  C      390.777    -354.760      68.473
  C      391.835    -354.589      67.678
  O      394.566    -351.638      70.458
  O      395.969    -353.788      70.406
  H      394.516    -351.818      71.399
  H      392.866    -351.466      64.040
  H      388.752    -352.696      66.850
  H      390.788    -355.388      69.356
  H      392.773    -355.103      67.879
  H      392.840    -353.836      64.748
  H      393.365    -351.646      66.830
  H      395.491    -351.319      65.760
  H      395.948    -354.083      65.348
  H      396.230    -354.310      67.833
  H      397.084    -352.887      67.164
  P      396.465    -352.117      63.317
  C      396.573    -354.606      62.516
  O      397.104    -353.593      63.365
  O      397.231    -351.327      64.476
  O      396.431    -351.461      61.984
  H      396.977    -351.587      65.384
  H      397.108    -355.519      62.673
  H      396.674    -354.304      61.494
  H      395.538    -354.755      62.743

 6  7  8  9  10  11  12  13  14  15  16  27  31  32  33  34  35 0
 6-311+G(2d,p)
 ****
 36  37 0
 6-311+G(2d,p)
 ****
 1  2  3  4  5  17  18  19  20  21  22  23  24  25 0
 3-21G
 ****
 26  28  29  30  38  39  40  41  42  43  44  45 0
 3-21G
 ****


