%nproc=1
%NoSave
%Mem=1900MB
#P OB98/GEN NMR

erre ene a

0 1
  C      -59.969     -15.425      61.451
  O      -58.813     -16.081      60.959
  P      -58.753     -16.462      59.402
  C      -59.561     -18.841      60.171
  O      -58.733     -18.064      59.325
  C      -58.752     -19.969      60.818
  O      -59.583     -20.638      61.807
  C      -58.257     -21.039      59.837
  O      -56.975     -21.483      60.303
  C      -59.291     -22.141      59.991
  O      -58.808     -23.409      59.572
  C      -59.592     -22.042      61.489
  N      -60.869     -22.647      61.867
  C      -60.934     -24.034      61.957
  O      -59.985     -24.781      61.716
  N      -62.152     -24.550      62.311
  C      -63.301     -23.843      62.512
  O      -64.370     -24.361      62.811
  C      -63.185     -22.386      62.357
  C      -61.993     -21.864      62.058
  O      -57.256     -16.035      59.038
  O      -59.813     -15.809      58.583
  H      -56.627     -16.195      59.761
  H      -57.968     -23.582      60.039
  H      -62.212     -25.554      62.420
  H      -64.079     -21.789      62.494
  H      -61.884     -20.793      61.935
  H      -58.782     -22.508      62.066
  H      -60.174     -21.899      59.387
  H      -58.171     -20.663      58.814
  H      -57.906     -19.522      61.355
  H      -60.373     -19.277      59.582
  H      -60.009     -18.194      60.933
  P      -55.808     -21.706      59.216
  C      -57.119     -23.274      57.582
  O      -56.073     -23.120      58.514
  O      -54.571     -22.019      60.193
  O      -55.556     -20.543      58.316
  H      -54.784     -22.681      60.871
  H      -56.930     -24.171      56.984
  H      -57.187     -22.416      56.910
  H      -58.066     -23.400      58.112
  H      -59.856     -15.241      62.499
  H      -60.827     -16.044      61.288
  H      -60.097     -14.495      60.937

 3  4  5  6  7  8  9  10  11  12  13  24  28  29  30  31  32 0
 6-311+G(2d,p)
 ****
 33  34 0
 6-311+G(2d,p)
 ****
 1  2  14  15  16  17  18  19  20  21  22  23  25  26  27 0
 3-21G
 ****
 35  36  37  38  39  40  41  42  43  44  45 0
 3-21G
 ****


