%nproc=1
%NoSave
%Mem=1900MB
#P OB98/GEN NMR

erre ene a

0 1
  C     -447.592     368.782    1009.447
  O     -448.719     368.634    1008.602
  H     -447.566     369.812    1009.811
  H     -446.678     368.580    1008.884
  H     -447.669     368.101    1010.299
  P     -449.053     367.155    1008.088
  C     -451.069     366.073    1006.798
  O     -450.573     367.163    1007.566
  C     -452.158     366.565    1005.842
  O     -453.251     367.165    1006.560
  C     -451.704     367.657    1004.894
  O     -450.829     367.189    1003.893
  C     -453.049     368.142    1004.362
  O     -453.547     367.255    1003.348
  C     -453.928     368.064    1005.640
  N     -454.155     369.376    1006.228
  C     -455.042     370.215    1005.532
  O     -455.574     369.824    1004.493
  N     -455.270     371.476    1006.011
  C     -454.691     371.870    1007.099
  N     -454.951     373.137    1007.527
  C     -453.775     371.018    1007.885
  C     -453.550     369.796    1007.397
  O     -449.151     366.323    1009.451
  O     -448.092     366.598    1007.085
  H     -454.324     367.704    1002.950
  H     -449.765     366.708    1010.096
  H     -453.323     371.379    1008.799
  H     -452.887     369.104    1007.906
  H     -454.899     367.617    1005.405
  H     -452.973     369.134    1003.917
  H     -451.250     368.485    1005.462
  H     -452.552     365.695    1005.292
  H     -455.568     373.702    1006.951
  H     -451.455     365.281    1007.446
  H     -454.534     373.566    1008.344
  H     -450.231     365.658    1006.231
  P     -449.836     368.193    1003.133
  C     -447.927     367.857    1001.441
  O     -448.651     367.298    1002.534
  O     -449.389     369.369    1003.939
  O     -450.661     368.588    1001.818
  H     -450.889     367.837    1001.240
  H     -447.166     367.172    1001.129
  H     -447.475     368.777    1001.746
  H     -448.596     368.041    1000.627

 6  7  8  9  10  11  12  13  14  15  16  26  30  31  32  33  35 0
 6-311+G(2d,p)
 ****
 37  38 0
 6-311+G(2d,p)
 ****
 1  2  3  4  5  17  18  19  20  21  22  23  24  25 0
 3-21G
 ****
 27  28  29  34  36  39  40  41  42  43  44  45  46 0
 3-21G
 ****


