%nproc=1
%NoSave
%Mem=1900MB
#P OB98/GEN NMR

erre ene a

0 1
  C      402.422    -785.893    1152.149
  O      403.136    -786.155    1153.374
  P      404.647    -785.596    1153.515
  C      404.146    -783.637    1155.171
  O      404.578    -784.027    1153.860
  C      404.925    -782.415    1155.638
  O      404.756    -781.292    1154.754
  C      404.498    -781.908    1156.998
  O      405.108    -782.647    1158.054
  C      405.054    -780.474    1156.969
  O      406.465    -780.497    1157.280
  C      404.812    -780.062    1155.531
  N      402.498    -775.526    1156.028
  C      403.741    -775.950    1156.383
  N      404.278    -777.181    1156.212
  C      403.386    -777.993    1155.637
  C      402.088    -777.705    1155.234
  C      401.646    -776.392    1155.452
  N      400.383    -775.962    1155.100
  N      401.480    -778.816    1154.688
  C      402.409    -779.776    1154.743
  N      403.561    -779.311    1155.324
  O      405.179    -785.634    1152.012
  O      405.493    -786.423    1154.426
  H      406.788    -779.579    1157.190
  H      406.115    -785.846    1152.006
  H      404.406    -775.193    1156.822
  H      402.291    -780.782    1154.370
  H      405.632    -779.444    1155.125
  H      404.574    -779.829    1157.730
  H      403.398    -781.883    1157.085
  H      405.986    -782.666    1155.666
  H      404.285    -784.474    1155.857
  H      400.147    -774.995    1155.255
  H      399.741    -776.605    1154.635
  H      403.065    -783.441    1155.127
  P      404.553    -782.407    1159.548
  C      402.325    -783.782    1159.256
  O      402.941    -782.481    1159.420
  O      404.820    -780.841    1159.784
  O      405.171    -783.262    1160.591
  H      404.968    -780.694    1160.728
  H      401.279    -783.679    1159.477
  H      402.769    -784.509    1159.931
  H      402.424    -784.104    1158.222
  H      401.444    -786.323    1152.207
  H      402.953    -786.326    1151.327
  H      402.339    -784.836    1152.004

 3  4  5  6  7  8  9  10  11  12  22  25  29  30  31  32 0
 6-311+G(2d,p)
 ****
 33  36  37 0
 6-311+G(2d,p)
 ****
 1  2  13  14  15  16  17  18  19  20  21  23  24  26 0
 3-21G
 ****
 27  28  34  35  38  39  40  41  42  43  44  45  46  47  48 0
 3-21G
 ****


