%nproc=1
%NoSave
%Mem=1900MB
#P OB98/GEN NMR

erre ene a

0 1
  C      133.888     102.172       1.930
  O      135.115     101.781       1.348
  H      133.203     102.475       1.135
  H      134.032     103.018       2.608
  H      133.445     101.333       2.472
  P      136.352     101.441       2.306
  C      138.192     102.832       3.453
  O      137.230     102.781       2.408
  C      139.378     103.711       3.054
  O      140.094     103.059       1.972
  C      138.972     105.113       2.584
  O      139.953     106.043       3.047
  C      139.030     104.985       1.076
  O      139.214     106.242       0.453
  C      140.176     103.987       0.874
  N      140.072     103.316      -0.421
  C      140.527     104.032      -1.532
  O      140.999     105.161      -1.394
  N      140.378     103.485      -2.780
  C      139.775     102.346      -2.917
  N      139.625     101.880      -4.185
  C      139.254     101.569      -1.775
  C      139.436     102.105      -0.568
  O      137.127     100.212       1.969
  O      135.686     101.334       3.758
  H      138.386     106.764       0.525
  H      135.417     100.413       3.935
  H      138.753     100.627      -1.942
  H      139.076     101.611       0.326
  H      141.148     104.494       0.932
  H      138.089     104.558       0.706
  H      137.979     105.410       2.932
  H      140.071     103.767       3.904
  H      139.977     102.460      -4.938
  H      138.539     101.810       3.639
  H      139.137     101.029      -4.419
  H      137.727     103.218       4.365
  P      139.776     106.779       4.463
  C      139.327     109.136       5.355
  O      139.290     108.291       4.210
  O      140.942     106.649       5.386
  O      138.479     106.079       5.097
  H      138.555     106.083       6.070
  H      138.987     110.115       5.087
  H      140.330     109.195       5.723
  H      138.691     108.734       6.116

 6  7  8  9  10  11  12  13  14  15  16  26  30  31  32  33  35 0
 6-311+G(2d,p)
 ****
 37  38 0
 6-311+G(2d,p)
 ****
 1  2  3  4  5  17  18  19  20  21  22  23  24  25 0
 3-21G
 ****
 27  28  29  34  36  39  40  41  42  43  44  45  46 0
 3-21G
 ****


