%nproc=1
%NoSave
%Mem=1900MB
#P OB98/GEN NMR

erre ene a

0 1
  C      -35.282      20.407     -58.025
  O      -34.028      19.874     -57.634
  P      -32.671      20.723     -57.778
  C      -32.228      20.920     -55.236
  O      -32.573      21.594     -56.435
  C      -30.774      21.214     -54.860
  O      -30.644      22.634     -54.587
  C      -30.275      20.456     -53.623
  O      -28.892      20.152     -53.839
  C      -30.432      21.480     -52.514
  O      -29.601      21.205     -51.394
  C      -30.087      22.772     -53.264
  N      -30.606      23.961     -52.597
  C      -29.973      24.378     -51.425
  O      -29.026      23.746     -50.959
  N      -30.430      25.510     -50.798
  C      -31.480      26.123     -51.252
  N      -31.856      27.274     -50.630
  C      -32.243      25.654     -52.425
  C      -31.741      24.594     -53.052
  O      -32.555      21.507     -59.039
  O      -31.509      19.650     -57.563
  H      -29.792      21.866     -50.701
  H      -31.270      19.169     -58.395
  H      -33.129      26.183     -52.748
  H      -32.219      24.195     -53.935
  H      -29.002      22.860     -53.386
  H      -31.471      21.489     -52.168
  H      -30.826      19.528     -53.446
  H      -30.140      20.988     -55.728
  H      -31.213      27.654     -49.945
  H      -32.339      19.845     -55.400
  H      -32.436      27.958     -51.105
  H      -32.911      21.220     -54.434
  P      -28.268      18.875     -53.092
  C      -28.499      17.277     -55.125
  O      -28.857      17.558     -53.788
  O      -29.062      18.897     -51.696
  O      -26.797      18.906     -52.840
  H      -28.522      18.451     -51.017
  H      -28.984      16.345     -55.428
  H      -27.416      17.149     -55.213
  H      -28.834      18.078     -55.788
  H      -36.049      19.682     -57.846
  H      -35.257      20.650     -59.067
  H      -35.487      21.291     -57.457

 3  4  5  6  7  8  9  10  11  12  13  23  27  28  29  30  32 0
 6-311+G(2d,p)
 ****
 34  35 0
 6-311+G(2d,p)
 ****
 1  2  14  15  16  17  18  19  20  21  22  24  25  26 0
 3-21G
 ****
 31  33  36  37  38  39  40  41  42  43  44  45  46 0
 3-21G
 ****


