%nproc=1
%NoSave
%Mem=1900MB
#P OB98/GEN NMR

erre ene a

0 1
  C       64.847      18.802     -54.634
  O       65.566      19.024     -53.415
  P       65.738      20.472     -52.744
  C       66.063      19.588     -50.344
  O       66.623      20.340     -51.411
  C       66.656      19.990     -48.989
  O       68.058      19.589     -48.917
  C       66.597      21.500     -48.693
  O       66.301      21.632     -47.299
  C       68.020      21.938     -49.005
  O       68.369      23.186     -48.436
  C       68.790      20.739     -48.444
  N       70.193      20.656     -48.837
  C       71.137      21.290     -48.019
  O       70.797      21.944     -47.035
  N       72.467      21.184     -48.349
  C       72.826      20.517     -49.400
  N       74.158      20.444     -49.663
  C       71.867      19.852     -50.298
  C       70.584      19.959     -49.958
  O       64.445      21.189     -52.527
  O       66.675      21.298     -53.746
  H       66.392      22.232     -53.753
  H       68.240      23.123     -47.472
  H       72.209      19.299     -51.160
  H       69.817      19.472     -50.553
  H       68.716      20.739     -47.351
  H       68.130      22.024     -50.090
  H       65.831      22.029     -49.268
  H       66.129      19.429     -48.209
  H       74.788      20.905     -49.017
  H       66.273      18.528     -50.520
  H       74.548      19.945     -50.448
  H       64.976      19.726     -50.342
  P       65.592      22.966     -46.761
  C       64.446      21.824     -44.721
  O       65.364      22.793     -45.185
  O       64.100      22.798     -47.329
  O       66.177      24.260     -47.228
  H       63.694      23.679     -47.425
  H       64.898      21.286     -43.883
  H       64.177      21.102     -45.495
  H       63.542      22.328     -44.371
  H       64.871      17.760     -54.878
  H       65.301      19.364     -55.423
  H       63.831      19.116     -54.511

 3  4  5  6  7  8  9  10  11  12  13  24  27  28  29  30  32 0
 6-311+G(2d,p)
 ****
 34  35 0
 6-311+G(2d,p)
 ****
 1  2  14  15  16  17  18  19  20  21  22  23  25  26 0
 3-21G
 ****
 31  33  36  37  38  39  40  41  42  43  44  45  46 0
 3-21G
 ****


