%nproc=1
%NoSave
%Mem=1900MB
#P OB98/GEN NMR

erre ene a

0 1
  C       46.023    -201.321    -238.827
  O       46.191    -202.656    -239.304
  P       45.716    -203.008    -240.794
  C       43.423    -203.821    -239.950
  O       44.114    -202.949    -240.837
  C       41.997    -204.074    -240.439
  O       41.146    -202.930    -240.219
  C       41.914    -204.354    -241.931
  O       42.377    -205.660    -242.228
  C       40.437    -204.111    -242.200
  O       39.654    -205.267    -241.859
  C       40.116    -202.952    -241.230
  N       39.996    -201.664    -241.896
  C       38.761    -201.395    -242.495
  O       37.864    -202.240    -242.476
  N       38.580    -200.183    -243.114
  C       39.548    -199.321    -243.138
  N       39.312    -198.135    -243.760
  C       40.868    -199.569    -242.529
  C       41.025    -200.752    -241.937
  O       46.325    -204.233    -241.393
  O       46.134    -201.695    -241.618
  H       38.726    -205.031    -242.056
  H       46.338    -201.952    -242.538
  H       41.644    -198.816    -242.570
  H       41.963    -201.020    -241.468
  H       39.174    -203.146    -240.705
  H       40.246    -203.892    -243.255
  H       42.515    -203.617    -242.479
  H       41.588    -204.925    -239.877
  H       38.401    -197.993    -244.180
  H       43.401    -203.380    -238.950
  H       39.984    -197.382    -243.788
  H       43.983    -204.760    -239.868
  P       43.856    -205.808    -242.824
  C       43.081    -205.879    -245.296
  O       43.848    -205.215    -244.309
  O       43.993    -207.389    -243.059
  O       44.945    -205.299    -241.935
  H       44.913    -207.665    -242.901
  H       42.927    -205.196    -246.136
  H       42.107    -206.182    -244.906
  H       43.625    -206.757    -245.653
  H       46.387    -201.252    -237.823
  H       44.985    -201.063    -238.848
  H       46.571    -200.647    -239.452

 3  4  5  6  7  8  9  10  11  12  13  23  27  28  29  30  32 0
 6-311+G(2d,p)
 ****
 34  35 0
 6-311+G(2d,p)
 ****
 1  2  14  15  16  17  18  19  20  21  22  24  25  26 0
 3-21G
 ****
 31  33  36  37  38  39  40  41  42  43  44  45  46 0
 3-21G
 ****


