%nproc=1
%NoSave
%Mem=1900MB
#P OB98/GEN NMR

erre ene a

0 1
  C     -263.874    -129.437    -292.443
  O     -264.592    -128.228    -292.272
  P     -265.329    -127.604    -293.556
  C     -263.452    -126.010    -294.403
  O     -264.174    -127.213    -294.601
  C     -263.316    -125.239    -295.722
  O     -262.397    -125.959    -296.586
  C     -264.629    -125.068    -296.503
  O     -264.544    -123.815    -297.192
  C     -264.579    -126.207    -297.510
  O     -265.420    -125.982    -298.635
  C     -263.091    -126.240    -297.822
  N     -260.494    -128.656    -301.440
  C     -260.786    -127.303    -301.306
  N     -260.260    -126.485    -302.237
  N     -261.520    -126.810    -300.344
  C     -261.968    -127.755    -299.478
  C     -261.782    -129.116    -299.528
  C     -260.936    -129.643    -300.574
  O     -260.580    -130.820    -300.680
  N     -262.467    -129.757    -298.527
  C     -262.997    -128.770    -297.823
  N     -262.684    -127.541    -298.338
  O     -265.851    -126.186    -293.014
  O     -266.430    -128.438    -294.142
  H     -265.112    -125.169    -299.079
  H     -266.772    -126.252    -292.695
  H     -259.900    -128.970    -302.186
  H     -263.607    -128.890    -296.938
  H     -262.794    -125.486    -298.562
  H     -264.908    -127.135    -297.022
  H     -259.654    -126.791    -302.990
  H     -265.521    -125.097    -295.867
  H     -260.429    -125.487    -302.140
  H     -262.868    -124.262    -295.506
  H     -262.448    -126.256    -294.039
  H     -263.952    -125.393    -293.646
  P     -265.731    -122.759    -296.973
  C     -267.186    -123.806    -298.845
  O     -267.087    -123.434    -297.483
  O     -265.428    -121.649    -298.100
  O     -265.774    -122.134    -295.619
  H     -265.716    -120.776    -297.778
  H     -267.954    -124.579    -298.944
  H     -266.240    -124.190    -299.226
  H     -267.486    -122.936    -299.434
  H     -263.440    -129.729    -291.510
  H     -263.099    -129.292    -293.167
  H     -264.540    -130.203    -292.782

 3  4  5  6  7  8  9  10  11  12  23  26  30  31 0
 6-311+G(2d,p)
 ****
 33  35  36  37  38 0
 6-311+G(2d,p)
 ****
 1  2  13  14  15  16  17  18  19  20  21  22  24  25 0
 3-21G
 ****
 27  28  29  32  34  39  40  41  42  43  44  45  46  47  48  49 0
 3-21G
 ****


