%nproc=1
%NoSave
%Mem=1900MB
#P OB98/GEN NMR

erre ene a

0 1
  C      -73.946     473.005     215.730
  O      -74.324     472.538     217.008
  H      -74.802     472.928     215.053
  H      -73.126     472.397     215.335
  H      -73.641     474.055     215.786
  P      -73.210     472.594     218.158
  C      -71.453     470.954     217.163
  O      -72.467     471.171     218.141
  C      -70.492     469.874     217.658
  O      -69.888     470.289     218.903
  C      -71.153     468.540     217.944
  O      -71.414     467.793     216.767
  C      -70.129     467.889     218.859
  O      -69.075     467.262     218.117
  C      -69.583     469.085     219.649
  N      -69.800     466.814     224.232
  C      -69.067     466.541     223.112
  N      -69.066     467.204     221.944
  C      -69.900     468.265     221.991
  C      -70.697     468.663     223.048
  C      -70.630     467.883     224.210
  N      -71.392     468.142     225.333
  N      -71.454     469.772     222.694
  C      -71.091     470.036     221.452
  N      -70.163     469.162     220.986
  O      -74.077     472.555     219.507
  O      -72.308     473.786     218.112
  H      -69.485     466.537     217.606
  H      -74.160     473.458     219.867
  H      -68.411     465.682     223.186
  H      -71.494     470.854     220.857
  H      -68.490     469.039     219.771
  H      -70.597     467.119     219.481
  H      -72.086     468.694     218.511
  H      -69.686     469.753     216.907
  H      -70.901     471.885     216.998
  H      -71.925     470.657     216.221
  H      -71.337     467.505     226.111
  H      -72.097     468.865     225.294
  P      -72.926     467.345     216.472
  C      -72.783     465.230     218.011
  O      -73.002     465.763     216.713
  O      -73.085     467.510     214.895
  O      -73.963     468.117     217.229
  H      -73.996     467.805     214.677
  H      -72.873     464.164     217.979
  H      -73.509     465.629     218.688
  H      -71.801     465.495     218.344

 6  7  8  9  10  11  12  13  14  15  25  28  32  33  34  35 0
 6-311+G(2d,p)
 ****
 36  37  40 0
 6-311+G(2d,p)
 ****
 1  2  3  4  5  16  17  18  19  20  21  22  23  24 0
 3-21G
 ****
 26  27  29  30  31  38  39 41  42  43  44  45  46  47  48 0
 3-21G
 ****


