%nproc=1
%NoSave
%Mem=1900MB
#P OB98/GEN NMR

erre ene a

0 1
  C      279.531    -495.438    -130.800
  O      279.182    -494.807    -129.570
  P      280.023    -493.499    -129.148
  C      282.460    -493.115    -128.346
  O      281.408    -494.050    -128.553
  C      283.679    -493.807    -127.741
  O      284.227    -494.739    -128.692
  C      284.821    -492.863    -127.383
  O      284.606    -492.224    -126.134
  C      285.984    -493.845    -127.307
  O      285.990    -494.491    -126.019
  C      285.646    -494.855    -128.418
  N      289.741    -496.095    -131.132
  C      289.317    -496.562    -129.896
  N      290.083    -497.511    -129.320
  N      288.246    -496.129    -129.286
  C      287.561    -495.207    -129.998
  C      287.877    -494.669    -131.234
  C      289.095    -495.118    -131.874
  O      289.553    -494.690    -132.935
  N      286.928    -493.768    -131.642
  C      286.018    -493.788    -130.682
  N      286.372    -494.627    -129.653
  O      279.248    -492.976    -127.853
  O      280.128    -492.446    -130.197
  H      286.739    -495.125    -126.020
  H      279.395    -492.020    -127.738
  H      290.567    -496.472    -131.564
  H      285.094    -493.217    -130.697
  H      285.832    -495.879    -128.085
  H      286.963    -493.353    -127.420
  H      290.843    -497.978    -129.796
  H      285.003    -492.135    -128.186
  H      289.767    -497.897    -128.436
  H      283.349    -494.367    -126.854
  H      282.114    -492.335    -127.657
  H      282.713    -492.647    -129.301
  P      285.437    -490.870    -125.880
  C      287.975    -490.329    -125.767
  O      286.971    -491.327    -125.791
  O      285.061    -490.485    -124.369
  O      285.125    -489.763    -126.831
  H      285.156    -489.527    -124.230
  H      287.654    -489.447    -125.206
  H      288.221    -490.031    -126.793
  H      288.868    -490.738    -125.292
  H      278.899    -496.287    -130.957
  H      280.552    -495.756    -130.761
  H      279.404    -494.745    -131.605

 3  4  5  6  7  8  9  10  11  12  23  26  30  31  33  0
 6-311+G(2d,p)
 ****
 35  36  37  38 0
 6-311+G(2d,p)
 ****
 1  2  13  14  15  16  17  18  19  20  21  22  24  25  27  28  29 0
 3-21G
 ****
 32  34  39  40  41  42  43  44  45  46  47  48  49 0
 3-21G
 ****


