%nproc=1
%NoSave
%Mem=1900MB
#P OB98/GEN NMR

erre ene a

0 1
  C      309.223    1137.452    1074.712
  O      310.341    1137.533    1073.846
  H      308.379    1137.958    1074.229
  H      309.445    1137.931    1075.651
  H      308.959    1136.407    1074.869
  P      311.729    1136.943    1074.387
  C      312.779    1139.309    1074.690
  O      312.854    1138.029    1074.058
  C      314.139    1139.632    1075.311
  O      314.415    1138.745    1076.400
  C      315.318    1139.518    1074.354
  O      315.435    1140.628    1073.453
  C      316.469    1139.411    1075.321
  O      316.924    1140.733    1075.736
  C      315.857    1138.653    1076.521
  N      316.318    1137.273    1076.556
  C      316.958    1136.834    1077.699
  O      317.101    1137.596    1078.686
  N      317.418    1135.561    1077.746
  C      317.373    1134.686    1076.698
  O      317.878    1133.553    1076.757
  C      316.729    1135.159    1075.449
  C      316.238    1136.426    1075.448
  O      312.043    1135.736    1073.373
  O      311.706    1136.477    1075.809
  H      311.891    1134.883    1073.825
  H      317.330    1141.134    1074.926
  H      317.865    1135.263    1078.573
  H      316.690    1134.515    1074.609
  H      315.771    1136.791    1074.534
  H      316.142    1139.117    1077.471
  H      317.331    1138.915    1074.871
  H      315.236    1138.556    1073.794
  H      314.081    1140.681    1075.697
  H      312.020    1139.295    1075.487
  H      312.493    1140.053    1073.936
  P      315.733    1140.297    1071.895
  C      318.248    1139.782    1072.510
  O      317.308    1140.520    1071.703
  O      315.041    1141.594    1071.229
  O      315.152    1138.998    1071.468
  H      315.058    1142.375    1071.832
  H      319.245    1140.062    1072.242
  H      318.115    1138.733    1072.344
  H      318.081    1140.003    1073.544

 6  7  8  9  10  11  12  13  14  15  16  27  31  32  33  34  35 0
 6-311+G(2d,p)
 ****
 36  37 0
 6-311+G(2d,p)
 ****
 1  2  3  4  5  17  18  19  20  21  22  23  24  25 0
 3-21G
 ****
 26  28  29  30  38  39  40  41  42  43  44  45 0
 3-21G
 ****


