%nproc=1
%NoSave
%Mem=1900MB
#P OB98/GEN NMR

erre ene a

0 1
  C       45.719    -133.734     124.569
  O       47.113    -133.503     124.563
  H       45.207    -132.770     124.537
  H       45.418    -134.260     125.480
  H       45.426    -134.313     123.689
  P       48.094    -134.765     124.722
  C       48.254    -133.843     127.138
  O       48.944    -134.438     126.049
  C       48.818    -134.357     128.461
  O       48.270    -133.624     129.578
  C       48.507    -135.819     128.768
  O       49.273    -136.732     127.996
  C       48.867    -135.862     130.246
  O       50.298    -135.890     130.391
  C       48.290    -134.508     130.734
  N       46.950    -134.634     131.306
  C       46.870    -135.120     132.616
  O       47.891    -135.418     133.235
  N       45.631    -135.291     133.186
  C       44.563    -135.020     132.500
  N       43.361    -135.252     133.093
  C       44.601    -134.490     131.123
  C       45.812    -134.330     130.590
  O       48.904    -135.129     123.518
  O       47.144    -135.947     125.232
  H       50.633    -135.025     130.098
  H       47.704    -136.755     125.334
  H       43.682    -134.289     130.591
  H       45.921    -133.958     129.575
  H       48.951    -134.050     131.478
  H       48.469    -136.737     130.762
  H       47.437    -136.020     128.665
  H       49.901    -134.166     128.454
  H       43.373    -135.654     134.020
  H       47.191    -134.089     127.043
  H       42.510    -135.334     132.546
  H       48.372    -132.756     127.112
  P       48.489    -137.899     127.222
  C       48.068    -139.449     129.278
  O       48.747    -139.253     128.049
  O       49.357    -138.095     125.896
  O       47.045    -137.632     126.933
  H       48.998    -137.562     125.158
  H       48.351    -140.393     129.695
  H       47.012    -139.436     129.108
  H       48.329    -138.666     129.959

 6  7  8  9  10  11  12  13  14  15  16  26  30  31  32  33  35 0
 6-311+G(2d,p)
 ****
 37  38 0
 6-311+G(2d,p)
 ****
 1  2  3  4  5  17  18  19  20  21  22  23  24  25 0
 3-21G
 ****
 27  28  29  34  36  39  40  41  42  43  44  45  46 0
 3-21G
 ****


