%nproc=1
%NoSave
%Mem=1900MB
#P OB98/GEN NMR

erre ene a

0 1
  C      430.310     624.676     329.927
  O      430.550     626.050     329.694
  H      431.210     624.118     329.651
  H      429.480     624.329     329.302
  H      430.092     624.494     330.978
  P      429.422     627.112     330.111
  C      428.305     627.669     332.359
  O      429.505     627.274     331.703
  C      428.510     627.717     333.870
  O      428.891     626.401     334.339
  C      429.595     628.706     334.313
  O      429.177     629.320     335.532
  C      430.792     627.812     334.580
  O      431.693     628.384     335.531
  C      430.129     626.524     335.067
  N      433.770     623.673     337.097
  C      433.064     624.730     337.632
  N      433.397     625.116     338.886
  N      432.123     625.377     336.992
  C      431.889     624.878     335.751
  C      432.516     623.838     335.107
  C      433.571     623.141     335.823
  O      434.234     622.206     335.400
  N      432.008     623.653     333.845
  C      431.081     624.588     333.717
  N      430.979     625.362     334.846
  O      428.049     626.829     329.585
  O      429.981     628.508     329.566
  H      432.453     627.765     335.619
  H      429.554     628.750     328.723
  H      434.495     623.220     337.626
  H      430.470     624.744     332.847
  H      429.901     626.557     336.136
  H      431.346     627.640     333.644
  H      434.101     624.664     339.448
  H      429.810     629.472     333.562
  H      432.881     625.875     339.307
  H      427.548     627.958     334.345
  H      427.526     626.943     332.113
  H      428.001     628.654     331.989
  P      428.858     630.894     335.533
  C      427.200     632.483     334.357
  O      427.525     631.128     334.657
  O      430.005     631.786     335.207
  O      428.333     631.148     337.033
  H      428.552     632.069     337.285
  H      426.302     632.514     333.776
  H      428.000     632.927     333.802
  H      427.054     633.025     335.268

 6  7  8  9  10  11  12  13  14  15  26  29  33  34 0
 6-311+G(2d,p)
 ****
 36  38  39  40  41 0
 6-311+G(2d,p)
 ****
 1  2  3  4  5  16  17  18  19  20  21  22  23  24  25 0
 3-21G
 ****
 27  28  30  31  32  35  37  42  43  44  45  46  47 0
 3-21G
 ****
 48  49 0
 3-21G
 ****


