%nproc=1
%NoSave
%Mem=1900MB
#P OB98/GEN NMR

erre ene a

0 1
  C     -560.597    -727.698     360.657
  O     -560.908    -726.727     361.627
  H     -560.291    -727.193     359.736
  H     -561.469    -728.322     360.438
  H     -559.772    -728.332     360.997
  P     -561.390    -727.218     363.076
  C     -562.788    -725.045     363.022
  O     -561.982    -725.924     363.808
  C     -563.376    -723.950     363.908
  O     -564.279    -724.505     364.881
  C     -562.331    -723.160     364.694
  O     -561.725    -722.167     363.872
  C     -563.193    -722.574     365.790
  O     -563.960    -721.465     365.284
  C     -564.124    -723.757     366.116
  N     -563.188    -724.337     371.066
  C     -563.637    -723.223     370.369
  N     -563.826    -722.099     371.093
  N     -563.867    -723.219     369.082
  C     -563.564    -724.392     368.485
  C     -563.106    -725.552     369.064
  C     -562.897    -725.561     370.494
  O     -562.525    -726.529     371.150
  N     -562.851    -726.518     368.118
  C     -563.206    -725.962     366.982
  N     -563.633    -724.663     367.146
  O     -560.379    -727.971     363.891
  O     -562.691    -728.101     362.774
  H     -564.502    -721.148     366.035
  H     -562.459    -729.041     362.663
  H     -563.011    -724.268     372.060
  H     -563.179    -726.439     366.016
  H     -565.121    -723.433     366.428
  H     -562.617    -722.210     366.651
  H     -563.397    -721.971     372.001
  H     -561.578    -723.822     365.154
  H     -564.111    -721.265     370.596
  H     -563.962    -723.281     363.261
  H     -563.587    -725.646     362.571
  H     -562.193    -724.605     362.227
  P     -560.128    -722.036     363.764
  C     -559.856    -720.184     365.539
  O     -559.811    -720.526     364.164
  O     -559.552    -722.474     362.466
  O     -559.576    -722.852     365.027
  H     -559.434    -723.809     364.836
  H     -559.624    -719.146     365.656
  H     -559.142    -720.772     366.076
  H     -560.836    -720.376     365.922

 6  7  8  9  10  11  12  13  14  15  26  29  33  34 0
 6-311+G(2d,p)
 ****
 36  38  39  40  41 0
 6-311+G(2d,p)
 ****
 1  2  3  4  5  16  17  18  19  20  21  22  23  24  25 0
 3-21G
 ****
 27  28  30  31  32  35  37  42  43  44  45  46  47 0
 3-21G
 ****
 48  49 0
 3-21G
 ****


