%nproc=1
%NoSave
%Mem=1900MB
#P OB98/GEN NMR

erre ene a

0 1
  C      421.442    -168.773     296.579
  O      421.282    -169.726     297.613
  H      422.497    -168.689     296.302
  H      420.873    -169.107     295.704
  H      421.059    -167.802     296.898
  P      422.070    -169.443     298.980
  C      423.330    -171.703     299.135
  O      423.429    -170.299     298.928
  C      424.675    -172.366     298.829
  O      424.918    -172.274     297.402
  C      425.879    -171.752     299.557
  O      426.545    -172.746     300.344
  C      426.817    -171.317     298.439
  O      428.196    -171.575     298.724
  C      426.332    -172.119     297.239
  N      428.261    -172.752     292.563
  C      427.733    -173.634     293.438
  N      427.138    -173.389     294.620
  C      427.094    -172.068     294.864
  C      427.572    -171.044     294.059
  C      428.199    -171.435     292.866
  N      428.786    -170.535     291.999
  N      427.352    -169.813     294.654
  C      426.792    -170.087     295.812
  N      426.635    -171.439     295.999
  O      421.188    -170.210     300.079
  O      422.245    -168.001     299.325
  H      428.477    -170.905     299.370
  H      421.030    -169.620     300.842
  H      427.802    -174.682     293.148
  H      426.529    -169.361     296.569
  H      426.778    -173.120     297.197
  H      426.698    -170.240     298.274
  H      425.600    -170.900     300.189
  H      424.590    -173.438     299.068
  H      422.568    -172.119     298.470
  H      429.312    -170.907     291.222
  H      428.838    -169.562     292.273
  H      423.031    -171.888     300.167
  P      426.025    -172.938     301.854
  C      428.062    -171.621     302.810
  O      426.645    -171.746     302.733
  O      426.837    -174.224     302.358
  O      424.550    -173.128     301.968
  H      426.336    -174.686     303.054
  H      428.313    -170.785     303.429
  H      428.461    -171.471     301.828
  H      428.476    -172.513     303.231

 6  7  8  9  10  11  12  13  14  15  25  28  32  33  34  35 0
 6-311+G(2d,p)
 ****
 36  39  40 0
 6-311+G(2d,p)
 ****
 1  2  3  4  5  16  17  18  19  20  21  22  23  24 0
 3-21G
 ****
 26  27  29  30  31  37  38  41  42  43  44  45  46  47  48 0
 3-21G
 ****


