%nproc=1
%NoSave
%Mem=1900MB
#P OB98/GEN NMR

erre ene a

0 1
  C     1045.926    -896.710    -286.104
  O     1045.633    -896.150    -287.369
  H     1045.186    -897.500    -285.900
  H     1045.841    -895.960    -285.321
  H     1046.913    -897.140    -286.109
  P     1046.462    -894.850    -287.848
  C     1046.623    -895.510    -290.337
  O     1047.347    -895.330    -289.098
  C     1047.599    -895.760    -291.491
  O     1048.487    -894.580    -291.584
  C     1048.496    -897.020    -291.345
  O     1048.650    -897.600    -292.608
  C     1049.781    -896.420    -290.824
  O     1050.887    -897.270    -291.085
  C     1049.833    -895.050    -291.523
  N     1050.732    -894.120    -290.816
  C     1051.874    -893.750    -291.448
  O     1052.141    -894.150    -292.594
  N     1052.778    -892.930    -290.780
  C     1052.550    -892.580    -289.548
  N     1053.473    -891.850    -288.942
  C     1051.323    -893.030    -288.810
  C     1050.470    -893.750    -289.489
  O     1047.224    -894.140    -286.786
  O     1045.335    -893.900    -288.504
  H     1050.736    -898.140    -290.661
  H     1044.980    -893.300    -287.818
  H     1051.162    -892.720    -287.795
  H     1049.521    -894.160    -289.043
  H     1050.219    -895.170    -292.539
  H     1049.715    -896.270    -289.729
  H     1048.057    -897.730    -290.604
  H     1047.008    -895.790    -292.412
  H     1054.319    -891.580    -289.472
  H     1046.035    -894.640    -290.495
  H     1053.416    -891.540    -287.961
  H     1045.962    -896.380    -290.246
  P     1047.536    -898.580    -293.195
  C     1046.466    -896.940    -294.886
  O     1046.265    -897.700    -293.692
  O     1047.192    -899.750    -292.325
  O     1048.169    -899.090    -294.590
  H     1047.839    -900.000    -294.763
  H     1045.572    -896.402    -295.121
  H     1046.707    -897.600    -295.693
  H     1047.270    -896.249    -294.738

 6  7  8  9  10  11  12  13  14  15  16  26  30  31  32  33  35 0
 6-311+G(2d,p)
 ****
 37  38 0
 6-311+G(2d,p)
 ****
 1  2  3  4  5  17  18  19  20  21  22  23  24  25 0
 3-21G
 ****
 27  28  29  34  36  39  40  41  42  43  44  45  46 0
 3-21G
 ****


