%nproc=1
%NoSave
%Mem=1900MB
#P OB98/GEN NMR

erre ene a

0 1
  C      -25.918     212.564     -43.387
  O      -24.793     212.825     -42.572
  H      -25.846     211.541     -43.766
  H      -25.954     213.251     -44.237
  H      -26.836     212.655     -42.798
  P      -24.533     214.340     -42.106
  C      -23.818     213.614     -39.731
  O      -23.422     214.247     -40.946
  C      -22.668     213.600     -38.721
  O      -21.614     212.726     -39.180
  C      -22.004     214.955     -38.526
  O      -22.816     215.905     -37.867
  C      -20.653     214.579     -37.936
  O      -20.676     214.420     -36.521
  C      -20.379     213.212     -38.613
  N      -19.319     213.295     -39.610
  C      -18.024     213.382     -39.109
  O      -17.758     213.407     -37.907
  N      -17.029     213.478     -40.043
  C      -17.206     213.549     -41.395
  O      -16.274     213.677     -42.180
  C      -18.600     213.481     -41.862
  C      -19.580     213.360     -40.962
  O      -25.752     215.117     -41.710
  O      -23.727     214.982     -43.328
  H      -21.035     215.246     -36.145
  H      -23.741     215.969     -43.283
  H      -16.084     213.529     -39.700
  H      -18.779     213.537     -42.927
  H      -20.616     213.308     -41.282
  H      -20.073     212.473     -37.859
  H      -19.893     215.331     -38.161
  H      -21.797     215.375     -39.519
  H      -23.047     213.205     -37.770
  H      -24.098     212.583     -39.966
  H      -24.688     214.131     -39.312
  P      -22.458     217.459     -37.784
  C      -24.774     218.488     -38.344
  O      -23.782     218.262     -37.352
  O      -21.613     218.015     -38.885
  O      -21.575     217.510     -36.433
  H      -20.888     218.195     -36.553
  H      -25.591     219.030     -37.915
  H      -25.126     217.549     -38.717
  H      -24.352     219.055     -39.147

 6  7  8  9  10  11  12  13  14  15  16  26  31  32  33  34  35 0
 6-311+G(2d,p)
 ****
 36  37 0
 6-311+G(2d,p)
 ****
 1  2  3  4  5  17  18  19  20  21  22  23  24  25 0
 3-21G
 ****
 27  28  29  30  38  39  40  41  42  43  44  45 0
 3-21G
 ****


