%nproc=1
%NoSave
%Mem=1900MB
#P OB98/GEN NMR

erre ene a

0 1
  C      109.487      -0.534     199.467
  O      108.469       0.364     199.899
  P      107.649      -0.023     201.220
  C      105.480      -1.411     201.721
  O      106.473      -1.023     200.788
  C      104.195      -1.861     201.002
  O      103.718      -0.761     200.184
  C      104.360      -3.036     200.043
  O      103.073      -3.604     199.791
  C      104.862      -2.346     198.793
  O      104.700      -3.166     197.639
  C      104.056      -1.027     198.798
  N      104.795       0.120     198.226
  C      105.127       0.087     196.875
  O      104.844      -0.842     196.120
  N      105.842       1.154     196.403
  C      106.217       2.248     197.125
  O      106.933       3.133     196.675
  C      105.722       2.297     198.507
  C      105.057       1.247     198.989
  O      106.894       1.332     201.604
  O      108.507      -0.524     202.332
  H      105.239      -3.976     197.795
  H      107.321       1.749     202.374
  H      106.148       1.112     195.442
  H      105.942       3.181     199.092
  H      104.701       1.258     200.016
  H      103.125      -1.131     198.225
  H      105.930      -2.132     198.894
  H      105.049      -3.811     200.388
  H      103.423      -2.076     201.749
  H      105.266      -0.584     202.400
  H      105.858      -2.235     202.337
  P      102.950      -5.202     199.751
  C      104.085      -7.048     198.369
  O      103.727      -5.681     198.432
  O      101.579      -5.757     199.931
  O      103.940      -5.665     200.926
  H      103.727      -6.578     201.192
  H      104.107      -7.358     197.322
  H      103.372      -7.676     198.911
  H      105.081      -7.178     198.800
  H      109.947      -0.151     198.580
  H      109.054      -1.491     199.260
  H      110.224      -0.635     200.236

 3  4  5  6  7  8  9  10  11  12  13  23  28  29  30  31  32 0
 6-311+G(2d,p)
 ****
 33  34 0
 6-311+G(2d,p)
 ****
 1  2  14  15  16  17  18  19  20  21  22  24  25  26  27 0
 3-21G
 ****
 35  36  37  38  39  40  41  42  43  44  45 0
 3-21G
 ****


