%nproc=1
%NoSave
%Mem=1900MB
#P OB98/GEN NMR

erre ene a

0 1
  C     -228.020     -22.811     188.181
  O     -227.081     -22.312     189.117
  P     -226.710     -20.757     189.121
  C     -224.623     -21.044     187.642
  O     -225.910     -20.444     187.764
  C     -224.078     -20.852     186.229
  O     -224.961     -21.457     185.263
  C     -223.947     -19.392     185.809
  O     -222.813     -18.793     186.401
  C     -223.876     -19.527     184.287
  O     -222.539     -19.865     183.873
  C     -224.836     -20.702     184.032
  N     -227.394     -18.550     180.173
  C     -226.068     -18.707     180.403
  N     -225.461     -19.261     181.480
  C     -226.376     -19.650     182.386
  C     -227.758     -19.527     182.309
  C     -228.274     -18.963     181.124
  N     -229.625     -18.857     180.848
  N     -228.356     -20.019     183.451
  C     -227.348     -20.422     184.210
  N     -226.145     -20.276     183.580
  O     -226.057     -20.258     190.370
  O     -228.116     -20.025     188.887
  H     -222.572     -20.060     182.917
  H     -228.314     -19.448     189.648
  H     -225.412     -18.347     179.617
  H     -227.446     -20.837     185.207
  H     -224.434     -21.396     183.279
  H     -224.158     -18.603     183.771
  H     -224.860     -18.843     186.075
  H     -223.105     -21.359     186.163
  H     -224.713     -22.115     187.862
  H     -229.874     -18.577     179.919
  H     -230.263     -19.425     181.394
  H     -223.936     -20.592     188.374
  P     -222.806     -17.215     186.702
  C     -222.010     -16.529     184.360
  O     -223.065     -16.472     185.304
  O     -221.638     -16.707     187.484
  O     -224.186     -16.978     187.489
  H     -224.070     -16.250     188.127
  H     -221.234     -15.806     184.634
  H     -222.406     -16.270     183.372
  H     -221.576     -17.533     184.311
  H     -228.142     -23.864     188.325
  H     -227.667     -22.626     187.188
  H     -228.960     -22.320     188.323

 3  4  5  6  7  8  9  10  11  12  22  25  29  30  31  32 0
 6-311+G(2d,p)
 ****
 33  36  37 0
 6-311+G(2d,p)
 ****
 1  2  13  14  15  16  17  18  19  20  21  23  24  26 0
 3-21G
 ****
 27  28  34  35  38  39  40  41  42  43  44  45  46  47  48 0
 3-21G
 ****


