%nproc=1
%NoSave
%Mem=1900MB
#P OB98/GEN NMR

erre ene a

0 1
  C     -180.683     262.107     515.332
  O     -181.520     261.717     516.399
  H     -179.686     261.689     515.498
  H     -180.607     263.200     515.289
  H     -181.068     261.727     514.381
  P     -183.050     262.219     516.333
  C     -184.298     264.423     516.899
  O     -183.055     263.734     516.856
  C     -184.292     265.435     518.043
  O     -183.274     266.436     517.806
  C     -185.584     266.203     518.200
  O     -186.590     265.447     518.856
  C     -185.122     267.412     519.006
  O     -185.064     267.123     520.404
  C     -183.707     267.663     518.444
  N     -183.548     272.747     517.957
  C     -183.482     271.943     519.058
  N     -183.517     270.587     519.090
  C     -183.613     270.080     517.851
  C     -183.699     270.772     516.652
  C     -183.653     272.178     516.743
  N     -183.755     273.006     515.636
  N     -183.828     269.914     515.589
  C     -183.825     268.699     516.128
  N     -183.683     268.757     517.486
  O     -183.746     261.400     517.517
  O     -183.730     261.987     515.023
  H     -184.783     267.952     520.847
  H     -184.227     260.627     517.143
  H     -183.377     272.445     520.008
  H     -183.919     267.771     515.579
  H     -182.984     267.893     519.234
  H     -185.800     268.254     518.868
  H     -185.938     266.549     517.223
  H     -184.033     264.913     518.976
  H     -185.108     263.708     517.056
  H     -184.449     264.938     515.946
  H     -183.792     273.995     515.782
  H     -183.943     272.591     514.741
  P     -188.052     266.082     518.986
  C     -189.051     268.211     520.115
  O     -187.967     267.293     520.015
  O     -188.896     264.982     519.755
  O     -188.671     266.457     517.676
  H     -189.825     264.952     519.417
  H     -188.823     268.954     520.851
  H     -189.938     267.686     520.402
  H     -189.207     268.683     519.168

 6  7  8  9  10  11  12  13  14  15  25  28  32  33  34  35 0
 6-311+G(2d,p)
 ****
 36  37  40 0
 6-311+G(2d,p)
 ****
 1  2  3  4  5  16  17  18  19  20  21  22  23  24 0
 3-21G
 ****
 26  27  29  30  31  38  39 41  42  43  44  45  46  47  48 0
 3-21G
 ****


