%nproc=1
%NoSave
%Mem=1900MB
#P OB98/GEN NMR

erre ene a

0 1
  C      171.696     664.812     170.168
  O      170.970     665.484     169.160
  H      171.561     665.342     171.117
  H      172.763     664.794     169.930
  H      171.325     663.789     170.284
  P      171.123     665.000     167.645
  C      173.372     666.193     167.231
  O      172.698     664.941     167.343
  C      174.827     665.996     166.809
  O      174.845     665.472     165.449
  C      175.658     667.284     166.841
  O      176.985     666.962     167.287
  C      175.675     667.704     165.383
  O      176.791     668.535     165.098
  C      175.667     666.349     164.656
  N      175.152     666.503     163.290
  C      176.097     666.748     162.288
  O      177.301     666.821     162.566
  N      175.659     666.969     161.007
  C      174.397     667.012     160.758
  N      174.024     667.269     159.468
  C      173.353     666.781     161.782
  C      173.801     666.535     163.017
  O      170.320     665.749     166.629
  O      170.707     663.454     167.694
  H      177.608     668.050     165.314
  H      169.746     663.365     167.528
  H      172.308     666.827     161.527
  H      173.113     666.365     163.841
  H      176.674     665.926     164.612
  H      174.757     668.267     165.154
  H      175.230     668.056     167.488
  H      175.278     665.223     167.451
  H      174.773     667.449     158.805
  H      173.338     666.680     168.222
  H      173.067     667.375     159.168
  H      172.851     666.831     166.507
  P      177.286     666.710     168.843
  C      178.354     668.955     169.451
  O      177.216     668.108     169.627
  O      178.516     665.906     169.114
  O      175.976     665.937     169.365
  H      176.227     665.343     170.097
  H      178.216     669.858     170.008
  H      178.467     669.190     168.413
  H      179.231     668.451     169.800

 6  7  8  9  10  11  12  13  14  15  16  26  30  31  32  33  35 0
 6-311+G(2d,p)
 ****
 37  38 0
 6-311+G(2d,p)
 ****
 1  2  3  4  5  17  18  19  20  21  22  23  24  25 0
 3-21G
 ****
 27  28  29  34  36  39  40  41  42  43  44  45  46 0
 3-21G
 ****


