%nproc=1
%NoSave
%Mem=1900MB
#P OB98/GEN NMR

erre ene a

0 1
  C     -533.423     370.677      39.448
  O     -534.828     370.606      39.559
  H     -533.001     370.865      40.436
  H     -533.145     371.505      38.787
  H     -533.017     369.740      39.061
  P     -535.655     370.179      38.252
  C     -537.950     371.397      38.305
  O     -537.208     370.233      38.652
  C     -539.276     371.434      39.072
  O     -540.075     370.289      38.675
  C     -539.111     371.385      40.590
  O     -540.094     372.244      41.183
  C     -539.421     369.944      40.949
  O     -539.880     369.785      42.292
  C     -540.455     369.572      39.869
  N     -540.506     368.128      39.653
  C     -541.721     367.499      39.936
  O     -542.674     368.147      40.366
  N     -541.798     366.138      39.792
  C     -540.743     365.452      39.468
  N     -540.883     364.105      39.373
  C     -539.424     366.083      39.221
  C     -539.381     367.406      39.325
  O     -535.366     368.611      38.124
  O     -535.310     370.928      37.006
  H     -539.288     370.301      42.882
  H     -535.366     368.328      37.187
  H     -538.568     365.470      38.982
  H     -538.458     367.956      39.164
  H     -541.452     369.923      40.162
  H     -538.517     369.335      40.824
  H     -538.115     371.688      40.929
  H     -539.832     372.332      38.761
  H     -541.796     363.714      39.559
  H     -538.159     371.373      37.231
  H     -540.110     363.473      39.173
  H     -537.353     372.289      38.530
  P     -539.614     373.115      42.450
  C     -541.829     373.268      43.803
  O     -540.884     373.939      42.984
  O     -538.676     374.229      41.793
  O     -538.893     372.318      43.486
  H     -537.740     374.056      42.022
  H     -542.610     373.946      44.075
  H     -541.344     372.909      44.687
  H     -542.245     372.442      43.264

 6  7  8  9  10  11  12  13  14  15  16  26  30  31  32  33  35 0
 6-311+G(2d,p)
 ****
 37  38 0
 6-311+G(2d,p)
 ****
 1  2  3  4  5  17  18  19  20  21  22  23  24  25 0
 3-21G
 ****
 27  28  29  34  36  39  40  41  42  43  44  45  46 0
 3-21G
 ****


