%nproc=1
%NoSave
%Mem=1900MB
#P OB98/GEN NMR

erre ene a

0 1
  C      -25.337      24.454     211.856
  O      -24.552      23.354     212.329
  P      -22.976      23.606     212.534
  C      -20.956      23.510     210.873
  O      -22.351      23.707     211.057
  C      -20.671      22.878     209.505
  O      -21.268      21.547     209.443
  C      -21.202      23.686     208.309
  O      -20.235      23.548     207.255
  C      -22.483      22.958     207.944
  O      -22.875      23.208     206.600
  C      -22.080      21.510     208.244
  N      -23.232      20.621     208.406
  C      -23.852      20.182     207.238
  O      -23.523      20.564     206.117
  N      -24.900      19.314     207.415
  C      -25.425      18.920     208.615
  O      -26.364      18.139     208.712
  C      -24.795      19.511     209.808
  C      -23.747      20.320     209.647
  O      -22.494      22.181     213.076
  O      -22.685      24.759     213.439
  H      -22.960      21.431     212.661
  H      -22.332      22.654     206.004
  H      -25.347      18.953     206.579
  H      -25.222      19.264     210.776
  H      -23.280      20.791     210.503
  H      -21.449      21.113     207.436
  H      -23.295      23.279     208.610
  H      -21.347      24.746     208.542
  H      -19.582      22.744     209.411
  H      -20.569      22.848     211.654
  H      -20.438      24.470     210.983
  P      -19.284      24.807     206.930
  C      -19.531      26.924     205.400
  O      -20.154      25.854     206.082
  O      -18.323      24.153     205.814
  O      -18.522      25.349     208.097
  H      -18.813      23.662     205.135
  H      -20.255      27.364     204.706
  H      -18.671      26.575     204.828
  H      -19.218      27.686     206.117
  H      -26.359      24.150     211.766
  H      -24.972      24.768     210.900
  H      -25.266      25.266     212.549

 3  4  5  6  7  8  9  10  11  12  13  24  28  29  30  31  32 0
 6-311+G(2d,p)
 ****
 33  34 0
 6-311+G(2d,p)
 ****
 1  2  14  15  16  17  18  19  20  21  22  23  25  26  27 0
 3-21G
 ****
 35  36  37  38  39  40  41  42  43  44  45 0
 3-21G
 ****


