%nproc=1
%NoSave
%Mem=1900MB
#P OB98/GEN NMR

erre ene a

0 1
  C     1057.702     442.268    -511.798
  O     1057.040     441.166    -511.159
  P     1056.116     441.451    -509.876
  C     1054.911     439.152    -509.571
  O     1055.853     440.086    -509.066
  C     1055.586     438.074    -510.425
  O     1056.498     437.282    -509.602
  C     1054.619     437.104    -511.105
  O     1055.213     436.721    -512.363
  C     1054.623     435.915    -510.145
  O     1054.171     434.716    -510.733
  C     1056.105     435.901    -509.753
  N     1056.387     435.165    -508.524
  C     1057.104     433.970    -508.638
  O     1057.460     433.466    -509.694
  N     1057.377     433.324    -507.455
  C     1056.989     433.732    -506.198
  O     1057.244     433.098    -505.174
  C     1056.215     434.981    -506.144
  C     1055.964     435.620    -507.293
  O     1054.687     441.729    -510.544
  O     1056.533     442.628    -509.037
  H     1054.908     434.357    -511.266
  H     1054.287     442.511    -510.145
  H     1057.906     432.473    -507.518
  H     1055.899     435.337    -505.179
  H     1055.395     436.555    -507.276
  H     1056.696     435.489    -510.568
  H     1053.964     436.136    -509.300
  H     1053.625     437.524    -511.269
  H     1056.208     438.597    -511.181
  H     1054.161     439.688    -510.185
  H     1054.378     438.693    -508.722
  P     1054.592     437.347    -513.718
  C     1056.737     437.652    -515.187
  O     1055.577     436.918    -514.900
  O     1054.966     438.895    -513.497
  O     1053.148     437.101    -513.907
  H     1055.869     439.025    -513.182
  H     1057.256     437.952    -514.266
  H     1056.496     438.527    -515.768
  H     1057.411     437.031    -515.765
  H     1058.272     441.908    -512.629
  H     1058.355     442.746    -511.098
  H     1056.973     442.971    -512.143

 3  4  5  6  7  8  9  10  11  12  13  23  28  29  30  31  32 0
 6-311+G(2d,p)
 ****
 33  34 0
 6-311+G(2d,p)
 ****
 1  2  14  15  16  17  18  19  20  21  22  24  25  26 0
 3-21G
 ****
 27  35  36  37  38  39  40  41  42  43  44  45 0
 3-21G
 ****


