%nproc=1
%NoSave
%Mem=1900MB
#P OB98/GEN NMR

erre ene a

0 1
  C      -33.209    -296.500      13.202
  O      -33.816    -296.311      14.469
  P      -34.230    -294.838      14.962
  C      -31.738    -294.214      15.078
  O      -32.972    -294.268      15.781
  C      -30.605    -294.817      15.914
  O      -29.417    -294.918      15.094
  C      -30.254    -293.988      17.138
  O      -29.899    -294.869      18.212
  C      -29.006    -293.220      16.727
  O      -28.208    -292.868      17.866
  C      -28.351    -294.204      15.756
  N      -23.619    -292.705      14.447
  C      -24.077    -293.385      15.521
  N      -25.352    -293.727      15.816
  C      -26.182    -293.344      14.834
  C      -25.858    -292.643      13.681
  C      -24.506    -292.318      13.498
  N      -24.031    -291.635      12.400
  N      -26.987    -292.397      12.922
  C      -27.972    -292.952      13.596
  N      -27.532    -293.547      14.754
  O      -35.527    -294.754      15.683
  O      -34.226    -293.954      13.631
  H      -27.462    -292.314      17.539
  H      -34.963    -293.307      13.651
  H      -23.320    -293.695      16.238
  H      -29.011    -292.943      13.302
  H      -27.730    -294.946      16.284
  H      -29.302    -292.292      16.222
  H      -31.065    -293.323      17.457
  H      -30.893    -295.841      16.203
  H      -31.505    -293.169      14.859
  H      -23.032    -291.552      12.296
  H      -24.661    -291.499      11.617
  H      -31.840    -294.751      14.123
  P      -30.840    -294.803      19.519
  C      -29.054    -294.068      21.269
  O      -29.857    -295.107      20.742
  O      -32.047    -295.679      19.382
  O      -31.152    -293.234      19.600
  H      -30.445    -292.706      19.164
  H      -28.428    -294.481      22.071
  H      -29.683    -293.280      21.689
  H      -28.407    -293.652      20.488
  H      -33.009    -297.541      13.054
  H      -32.292    -295.951      13.161
  H      -33.868    -296.151      12.435

 3  4  5  6  7  8  9  10  11  12  22  25  29  30  31  32 0
 6-311+G(2d,p)
 ****
 33  36  37 0
 6-311+G(2d,p)
 ****
 1  2  13  14  15  16  17  18  19  20  21  23  24  26 0
 3-21G
 ****
 27  28  34  35  38  39  40  41  42  43  44  45  46  47  48 0
 3-21G
 ****


