%nproc=1
%NoSave
%Mem=1900MB
#P OB98/GEN NMR

erre ene a

0 1
  C       37.944     697.082     124.375
  O       38.363     698.416     124.164
  H       38.824     696.434     124.363
  H       37.262     696.771     123.582
  H       37.452     696.993     125.346
  P       37.200     699.517     124.036
  C       37.549     700.112     126.554
  O       37.540     700.565     125.205
  C       38.837     700.544     127.243
  O       39.989     699.997     126.561
  C       39.068     702.058     127.268
  O       38.296     702.725     128.244
  C       40.548     702.087     127.593
  O       40.742     701.775     128.985
  C       41.073     700.961     126.685
  N       41.492     701.434     125.362
  C       42.702     702.139     125.302
  O       43.362     702.345     126.323
  N       43.120     702.634     124.089
  C       42.406     702.426     123.024
  N       42.870     702.940     121.856
  C       41.136     701.674     123.042
  C       40.747     701.213     124.226
  O       35.909     698.764     124.608
  O       37.017     700.124     122.684
  H       40.354     700.894     129.132
  H       35.164     699.403     124.710
  H       40.574     701.537     122.132
  H       39.821     700.650     124.315
  H       41.920     700.437     127.153
  H       41.009     703.060     127.423
  H       38.912     702.503     126.277
  H       38.831     700.129     128.258
  H       43.712     703.497     121.890
  H       37.475     699.019     126.549
  H       42.317     702.959     121.005
  H       36.691     700.525     127.092
  P       38.446     704.321     128.344
  C       36.660     704.742     126.491
  O       37.062     704.953     127.841
  O       39.463     704.662     127.157
  O       38.938     704.825     129.664
  H       40.038     705.416     127.396
  H       35.721     705.226     126.319
  H       36.559     703.692     126.309
  H       37.398     705.149     125.831

 6  7  8  9  10  11  12  13  14  15  16  26  30  31  32  33  35 0
 6-311+G(2d,p)
 ****
 37  38 0
 6-311+G(2d,p)
 ****
 1  2  3  4  5  17  18  19  20  21  22  23  24  25 0
 3-21G
 ****
 27  28  29  34  36  39  40  41  42  43  44  45  46 0
 3-21G
 ****


