%nproc=1
%NoSave
%Mem=1900MB
#P OB98/GEN NMR

erre ene a

0 1
  C     -166.093    -203.396      24.960
  O     -166.919    -202.272      25.220
  H     -165.563    -203.662      25.879
  H     -165.350    -203.163      24.192
  H     -166.700    -204.248      24.643
  P     -167.683    -201.592      23.983
  C     -167.006    -201.754      21.490
  O     -166.589    -201.465      22.822
  C     -166.267    -200.856      20.502
  O     -164.842    -200.967      20.693
  C     -166.519    -201.231      19.051
  O     -167.795    -200.795      18.627
  C     -165.341    -200.559      18.372
  O     -165.577    -199.158      18.188
  C     -164.213    -200.796      19.405
  N     -163.381    -201.951      19.077
  C     -161.997    -201.770      19.235
  O     -161.550    -200.692      19.636
  N     -161.163    -202.813      18.914
  C     -161.661    -203.938      18.498
  N     -160.781    -204.927      18.187
  C     -163.109    -204.168      18.328
  C     -163.899    -203.143      18.631
  O     -168.437    -200.328      24.265
  O     -168.641    -202.757      23.446
  H     -164.791    -198.814      17.719
  H     -169.504    -202.724      23.902
  H     -163.477    -205.118      17.980
  H     -164.981    -203.232      18.537
  H     -163.565    -199.913      19.482
  H     -165.141    -200.990      17.391
  H     -166.416    -202.314      18.916
  H     -166.554    -199.813      20.696
  H     -159.790    -204.721      18.315
  H     -168.086    -201.560      21.442
  H     -161.048    -205.868      17.944
  H     -166.827    -202.809      21.251
  P     -168.531    -201.504      17.389
  C     -168.020    -201.770      14.877
  O     -167.539    -201.312      16.142
  O     -169.943    -201.081      17.156
  O     -168.393    -203.064      17.727
  H     -169.002    -203.334      18.451
  H     -167.278    -201.591      14.127
  H     -168.917    -201.244      14.625
  H     -168.225    -202.819      14.932

 6  7  8  9  10  11  12  13  14  15  16  26  30  31  32  33  35 0
 6-311+G(2d,p)
 ****
 37  38 0
 6-311+G(2d,p)
 ****
 1  2  3  4  5  17  18  19  20  21  22  23  24  25 0
 3-21G
 ****
 27  28  29  34  36  39  40  41  42  43  44  45  46 0
 3-21G
 ****


