%nproc=1
%NoSave
%Mem=1900MB
#P OB98/GEN NMR

erre ene a

0 1
  C     -118.589    -109.115      59.152
  O     -117.303    -108.527      59.155
  H     -118.784    -109.523      58.154
  H     -119.346    -108.359      59.370
  H     -118.647    -109.928      59.879
  P     -116.705    -107.973      60.534
  C     -114.348    -108.950      60.141
  O     -115.123    -107.773      60.324
  C     -113.039    -108.627      59.411
  O     -113.357    -108.162      58.073
  C     -112.196    -107.544      60.099
  O     -110.813    -107.868      59.961
  C     -112.516    -106.293      59.300
  O     -111.461    -105.332      59.357
  C     -112.749    -106.864      57.900
  N     -112.790    -103.036      54.599
  C     -111.728    -103.731      55.142
  N     -110.490    -103.345      54.766
  N     -111.865    -104.724      55.985
  C     -113.163    -105.022      56.252
  C     -114.297    -104.411      55.783
  C     -114.132    -103.300      54.866
  O     -115.034    -102.631      54.367
  N     -115.433    -104.987      56.303
  C     -114.980    -105.946      57.092
  N     -113.606    -106.000      57.104
  O     -117.076    -108.770      61.748
  O     -117.249    -106.473      60.629
  H     -110.624    -105.820      59.199
  H     -117.969    -106.403      61.282
  H     -112.627    -102.272      53.964
  H     -115.595    -106.621      57.671
  H     -111.814    -106.991      57.338
  H     -113.430    -105.827      59.691
  H     -110.311    -102.604      54.103
  H     -112.445    -107.436      61.153
  H     -109.692    -103.857      55.127
  H     -112.464    -109.555      59.297
  H     -114.934    -109.661      59.549
  H     -114.131    -109.398      61.121
  P     -109.846    -107.711      61.234
  C     -108.850    -110.083      61.211
  O     -108.588    -108.697      61.052
  O     -110.519    -107.792      62.564
  O     -109.192    -106.261      61.008
  H     -109.052    -105.843      61.878
  H     -107.945    -110.636      61.068
  H     -109.576    -110.394      60.489
  H     -109.227    -110.264      62.196

 6  7  8  9  10  11  12  13  14  15  26  29  33  34 0
 6-311+G(2d,p)
 ****
 36  38  39  40  41 0
 6-311+G(2d,p)
 ****
 1  2  3  4  5  16  17  18  19  20  21  22  23  24  25 0
 3-21G
 ****
 27  28  30  31  32  35  37  42  43  44  45  46  47 0
 3-21G
 ****
 48  49 0
 3-21G
 ****


