%nproc=1
%NoSave
%Mem=1900MB
#P OB98/GEN NMR

erre ene a

0 1
  C       34.155     224.493    -178.550
  O       33.898     223.922    -179.827
  P       32.572     224.375    -180.608
  C       30.033     223.948    -180.295
  O       31.322     223.940    -179.697
  C       28.955     223.544    -179.291
  O       29.289     224.097    -177.989
  C       27.542     224.029    -179.643
  O       26.623     223.037    -179.167
  C       27.394     225.287    -178.804
  O       26.026     225.637    -178.598
  C       28.145     224.862    -177.543
  N       27.325     227.579    -173.286
  C       26.728     226.470    -173.772
  N       27.003     225.803    -174.914
  C       28.009     226.396    -175.580
  C       28.689     227.549    -175.225
  C       28.314     228.153    -174.011
  N       28.929     229.277    -173.508
  N       29.638     227.867    -176.176
  C       29.534     226.919    -177.088
  N       28.581     225.998    -176.757
  O       32.520     223.345    -181.833
  O       32.564     225.787    -181.083
  H       25.592     224.900    -178.129
  H       32.690     223.818    -182.672
  H       25.929     226.059    -173.164
  H       30.117     226.862    -177.996
  H       27.538     224.216    -176.895
  H       27.889     226.125    -179.299
  H       27.386     224.214    -180.709
  H       28.970     222.453    -179.189
  H       30.025     223.235    -181.123
  H       28.697     229.570    -172.572
  H       29.787     229.601    -173.942
  H       29.822     224.947    -180.696
  P       25.472     222.571    -180.184
  C       23.049     223.387    -180.619
  O       24.350     223.712    -180.168
  O       24.780     221.345    -179.418
  O       25.975     222.164    -181.530
  H       24.395     220.723    -180.066
  H       22.321     223.970    -180.048
  H       22.827     222.321    -180.497
  H       22.962     223.650    -181.681
  H       35.068     224.095    -178.159
  H       33.350     224.258    -177.886
  H       34.240     225.555    -178.645

 3  4  5  6  7  8  9  10  11  12  22  25  29  30  31  32 0
 6-311+G(2d,p)
 ****
 33  36  37 0
 6-311+G(2d,p)
 ****
 1  2  13  14  15  16  17  18  19  20  21  23  24  26 0
 3-21G
 ****
 27  28  34  35  38  39  40  41  42  43  44  45  46  47  48 0
 3-21G
 ****


