%nproc=1
%NoSave
%Mem=1900MB
#P OB98/GEN NMR

erre ene a

0 1
  C      -97.491     204.190     264.752
  O      -96.891     204.654     263.560
  H      -98.448     203.726     264.500
  H      -97.680     205.024     265.435
  H      -96.858     203.443     265.237
  P      -95.466     205.385     263.657
  C      -94.640     207.498     264.908
  O      -95.728     206.623     264.651
  C      -95.086     208.951     264.769
  O      -96.274     209.213     265.550
  C      -94.073     209.983     265.256
  O      -92.965     210.147     264.390
  C      -94.961     211.213     265.305
  O      -95.179     211.703     263.970
  C      -96.255     210.625     265.906
  N      -96.327     210.786     267.358
  C      -97.466     211.423     267.860
  O      -98.347     211.826     267.103
  N      -97.574     211.621     269.218
  C      -96.612     211.238     270.001
  N      -96.765     211.464     271.334
  C      -95.385     210.580     269.512
  C      -95.310     210.387     268.196
  O      -94.816     205.732     262.356
  O      -94.580     204.419     264.575
  H      -94.304     211.910     263.596
  H      -93.682     204.822     264.658
  H      -94.600     210.308     270.201
  H      -94.435     209.916     267.762
  H      -97.144     211.084     265.454
  H      -94.527     212.031     265.882
  H      -93.743     209.753     266.276
  H      -95.353     209.111     263.716
  H      -97.616     211.917     271.639
  H      -93.839     207.264     264.204
  H      -96.036     211.268     272.008
  H      -94.275     207.346     265.929
  P      -91.686     210.923     264.984
  C      -91.499     213.189     266.268
  O      -92.174     212.422     265.283
  O      -90.732     211.070     263.711
  O      -91.017     210.249     266.139
  H      -90.041     210.377     263.717
  H      -91.951     214.156     266.338
  H      -90.470     213.295     265.994
  H      -91.567     212.694     267.214

 6  7  8  9  10  11  12  13  14  15  16  26  30  31  32  33  35 0
 6-311+G(2d,p)
 ****
 37  38 0
 6-311+G(2d,p)
 ****
 1  2  3  4  5  17  18  19  20  21  22  23  24  25 0
 3-21G
 ****
 27  28  29  34  36  39  40  41  42  43  44  45  46 0
 3-21G
 ****


