%nproc=1
%NoSave
%Mem=1900MB
#P OB98/GEN NMR

erre ene a

0 1
  C      543.682     287.040    1440.586
  O      542.855     287.923    1439.860
  H      544.491     287.615    1441.048
  H      544.124     286.291    1439.920
  H      543.113     286.549    1441.382
  P      541.652     287.312    1438.999
  C      540.081     287.258    1441.050
  O      540.713     286.508    1440.021
  C      538.553     287.102    1440.974
  O      538.092     287.638    1439.705
  C      538.078     285.646    1441.054
  O      536.775     285.647    1441.663
  C      537.971     285.275    1439.587
  O      537.242     284.092    1439.396
  C      537.397     286.578    1439.020
  N      537.534     286.672    1437.571
  C      536.863     285.703    1436.818
  O      536.206     284.828    1437.388
  N      536.973     285.727    1435.458
  C      537.736     286.613    1434.887
  N      537.825     286.580    1433.533
  C      538.516     287.613    1435.649
  C      538.364     287.593    1436.979
  O      542.055     286.544    1437.786
  O      540.765     288.591    1438.618
  H      537.603     283.366    1439.951
  H      540.912     288.823    1437.678
  H      539.163     288.314    1435.139
  H      538.893     288.281    1437.621
  H      536.322     286.672    1439.272
  H      538.975     285.097    1439.169
  H      538.745     284.999    1441.621
  H      538.095     287.715    1441.766
  H      537.278     285.860    1433.052
  H      540.357     288.310    1440.918
  H      538.397     287.194    1432.991
  H      540.435     286.928    1442.037
  P      536.542     285.482    1443.231
  C      534.831     287.342    1443.752
  O      536.177     286.906    1443.876
  O      537.650     284.767    1443.943
  O      535.174     284.659    1443.377
  H      535.212     284.114    1444.184
  H      534.721     288.298    1444.220
  H      534.182     286.636    1444.227
  H      534.576     287.421    1442.716

 6  7  8  9  10  11  12  13  14  15  16  26  30  31  32  33  35 0
 6-311+G(2d,p)
 ****
 37  38 0
 6-311+G(2d,p)
 ****
 1  2  3  4  5  17  18  19  20  21  22  23  24  25 0
 3-21G
 ****
 27  28  29  34  36  39  40  41  42  43  44  45  46 0
 3-21G
 ****


