%nproc=1
%NoSave
%Mem=1900MB
#P OB98/GEN NMR

erre ene a

0 1
  C      102.869     887.931     494.168
  O      103.410     889.074     493.539
  P      102.489     890.016     492.645
  C      104.114     891.829     493.482
  O      103.259     891.422     492.434
  C      104.887     893.098     493.087
  O      103.984     894.102     492.584
  C      105.615     893.769     494.250
  O      106.776     893.047     494.647
  C      105.887     895.140     493.640
  O      107.044     895.104     492.781
  C      104.599     895.397     492.818
  N      103.691     896.312     493.481
  C      104.276     897.502     493.944
  O      105.480     897.670     493.867
  N      103.447     898.452     494.508
  C      102.189     898.184     494.699
  N      101.398     899.181     495.201
  C      101.569     896.876     494.358
  C      102.383     896.013     493.746
  O      101.068     890.144     493.091
  O      102.558     889.363     491.201
  H      101.629     889.240     490.863
  H      107.815     894.873     493.351
  H      100.524     896.690     494.600
  H      102.004     895.035     493.427
  H      104.858     895.791     491.823
  H      106.076     895.893     494.413
  H      104.932     893.877     495.088
  H      105.599     892.837     492.283
  H      101.864     900.095     495.401
  H      104.823     891.036     493.712
  H      100.399     899.202     495.069
  H      103.525     892.009     494.394
  P      106.899     892.656     496.207
  C      108.473     890.817     495.251
  O      108.137     891.675     496.347
  O      105.624     891.703     496.443
  O      106.870     893.829     497.116
  H      105.245     891.861     497.340
  H      109.515     890.479     495.394
  H      108.369     891.334     494.327
  H      107.807     889.928     495.293
  H      103.637     887.430     494.720
  H      102.474     887.269     493.426
  H      102.086     888.228     494.835

 3  4  5  6  7  8  9  10  11  12  13  24  27  28  29  30  32 0
 6-311+G(2d,p)
 ****
 34  35 0
 6-311+G(2d,p)
 ****
 1  2  14  15  16  17  18  19  20  21  22  23  25  26 0
 3-21G
 ****
 31  33  36  37  38  39  40  41  42  43  44  45  46 0
 3-21G
 ****


