%nproc=1
%NoSave
%Mem=1900MB
#P OB98/GEN NMR

erre ene a

0 1
  C     -347.945    -898.978     385.477
  O     -347.726    -898.138     384.325
  P     -348.831    -898.158     383.169
  C     -349.349    -895.818     384.213
  O     -349.770    -896.868     383.341
  C     -349.193    -894.508     383.440
  O     -348.044    -894.558     382.564
  C     -350.364    -894.198     382.527
  O     -351.465    -893.688     383.278
  C     -349.765    -893.208     381.555
  O     -349.914    -891.848     382.020
  C     -348.266    -893.608     381.511
  N     -347.865    -894.148     380.219
  C     -347.982    -893.258     379.135
  O     -348.426    -892.118     379.309
  N     -347.620    -893.708     377.887
  C     -347.201    -894.928     377.732
  N     -346.856    -895.318     376.480
  C     -347.096    -895.908     378.848
  C     -347.442    -895.438     380.064
  O     -349.792    -899.368     383.604
  O     -348.280    -898.358     381.798
  H     -349.213    -891.728     382.697
  H     -350.151    -899.818     382.812
  H     -346.750    -896.918     378.683
  H     -347.397    -896.078     380.946
  H     -347.629    -892.738     381.739
  H     -350.252    -893.238     380.577
  H     -350.661    -895.118     381.978
  H     -349.059    -893.688     384.155
  H     -346.943    -894.638     375.745
  H     -348.416    -896.088     384.694
  H     -346.539    -896.258     376.255
  H     -350.090    -895.718     385.022
  P     -352.949    -894.068     382.783
  C     -353.984    -895.048     384.903
  O     -353.370    -895.338     383.653
  O     -352.653    -894.748     381.339
  O     -353.921    -892.938     382.677
  H     -353.495    -894.928     380.884
  H     -354.410    -895.988     385.304
  H     -354.782    -894.298     384.786
  H     -353.222    -894.698     385.615
  H     -347.131    -898.863     386.162
  H     -348.008    -900.000     385.166
  H     -348.858    -898.694     385.957

 3  4  5  6  7  8  9  10  11  12  13  21  23  27  28  29  30  32 0
 6-311+G(2d,p)
 ****
 34  35 0
 6-311+G(2d,p)
 ****
 1  2  14  15  16  17  18  19  20  22  24  25  26 0
 3-21G
 ****
 31  33  36  37  38  39  40  41  42  43  44  45  46 0
 3-21G
 ****


