%nproc=1
%NoSave
%Mem=1900MB
#P OB98/GEN NMR

erre ene a

0 1
  C       95.321     272.007    -175.683
  O       96.253     272.738    -176.456
  P       95.736     273.792    -177.544
  C       96.194     273.246    -180.015
  O       95.376     272.978    -178.880
  C       97.575     272.618    -179.837
  O       97.450     271.248    -179.397
  C       98.403     272.561    -181.114
  O       98.945     273.832    -181.420
  C       99.435     271.499    -180.753
  O      100.497     272.072    -179.973
  C       98.603     270.533    -179.894
  N       99.887     265.783    -181.248
  C      100.588     266.769    -180.645
  N      100.187     268.026    -180.353
  C       98.928     268.226    -180.770
  C       98.101     267.329    -181.432
  C       98.620     266.041    -181.651
  N       97.895     265.010    -182.207
  N       96.883     267.919    -181.732
  C       96.983     269.148    -181.266
  N       98.171     269.355    -180.624
  O       96.609     274.983    -177.746
  O       94.297     274.232    -176.995
  H      101.104     272.517    -180.590
  H       94.296     275.192    -176.823
  H      101.601     266.511    -180.349
  H       96.218     269.911    -181.355
  H       99.160     270.184    -179.016
  H       99.887     271.035    -181.631
  H       97.784     272.194    -181.943
  H       98.107     273.174    -179.056
  H       96.293     274.332    -180.119
  H       98.314     264.094    -182.182
  H       96.880     265.089    -182.228
  H       95.711     272.848    -180.911
  P       99.616     274.087    -182.850
  C      102.159     274.356    -183.048
  O      101.092     273.462    -182.791
  O       99.534     275.486    -183.362
  O       98.839     273.071    -183.817
  H       98.780     273.456    -184.712
  H      102.242     274.528    -184.126
  H      103.089     273.905    -182.689
  H      102.006     275.308    -182.535
  H       95.845     271.356    -175.014
  H       94.698     271.426    -176.331
  H       94.715     272.685    -175.119

 3  4  5  6  7  8  9  10  11  12  22  25  29  30  31  32 0
 6-311+G(2d,p)
 ****
 33  36  37 0
 6-311+G(2d,p)
 ****
 1  2  13  14  15  16  17  18  19  20  21  23  24  26 0
 3-21G
 ****
 27  28  34  35  38  39  40  41  42  43  44  45  46  47  48 0
 3-21G
 ****


