%nproc=1
%NoSave
%Mem=1900MB
#P OB98/GEN NMR

erre ene a

0 1
  C     -204.003      -7.238     259.721
  O     -205.348      -7.697     259.564
  P     -205.963      -7.935     258.102
  C     -208.032      -6.476     258.472
  O     -207.563      -7.787     258.174
  C     -209.563      -6.363     258.473
  O     -210.105      -6.626     257.154
  C     -210.277      -7.303     259.452
  O     -211.437      -6.596     259.897
  C     -210.665      -8.465     258.553
  O     -211.696      -9.272     259.111
  C     -211.026      -7.727     257.259
  N     -210.969      -8.597     256.087
  C     -212.111      -9.342     255.794
  O     -213.090      -9.295     256.539
  N     -212.099     -10.162     254.691
  C     -211.012     -10.296     254.002
  N     -211.057     -11.140     252.936
  C     -209.753      -9.594     254.326
  C     -209.809      -8.761     255.364
  O     -205.486      -9.173     257.415
  O     -205.513      -6.630     257.281
  H     -211.955      -9.942     258.444
  H     -205.405      -6.866     256.337
  H     -208.862      -9.758     253.740
  H     -208.942      -8.198     255.680
  H     -212.041      -7.308     257.325
  H     -209.792      -9.113     258.390
  H     -209.653      -7.610     260.292
  H     -209.814      -5.321     258.714
  H     -211.930     -11.624     252.764
  H     -207.624      -5.783     257.729
  H     -210.239     -11.407     252.404
  H     -207.639      -6.169     259.446
  P     -211.423      -5.685     261.212
  C     -213.786      -6.550     261.680
  O     -212.952      -5.413     261.605
  O     -210.574      -4.460     261.122
  O     -210.914      -6.662     262.382
  H     -210.614      -6.124     263.135
  H     -214.729      -6.272     262.155
  H     -213.313      -7.343     262.270
  H     -213.996      -6.925     260.670
  H     -203.779      -7.141     260.763
  H     -203.892      -6.288     259.242
  H     -203.332      -7.942     259.276

 3  4  5  6  7  8  9  10  11  12  13  23  27  28  29  30  32 0
 6-311+G(2d,p)
 ****
 34  35 0
 6-311+G(2d,p)
 ****
 1  2  14  15  16  17  18  19  20  21  22  24  25  26 0
 3-21G
 ****
 31  33  36  37  38  39  40  41  42  43  44  45  46 0
 3-21G
 ****


