%nproc=1
%NoSave
%Mem=1900MB
#P OB98/GEN NMR

erre ene a

0 1
  C      -61.733    -205.586    -126.631
  O      -60.922    -206.510    -127.331
  P      -61.334    -208.055    -127.403
  C      -60.626    -208.632    -129.804
  O      -61.718    -208.404    -128.919
  C      -61.014    -208.266    -131.234
  O      -61.404    -206.877    -131.323
  C      -59.886    -208.425    -132.242
  O      -59.615    -209.784    -132.529
  C      -60.426    -207.614    -133.413
  O      -61.369    -208.382    -134.174
  C      -61.140    -206.456    -132.684
  N      -60.375    -205.220    -132.719
  C      -60.093    -204.707    -133.990
  O      -60.415    -205.333    -135.000
  N      -59.444    -203.501    -134.080
  C      -59.004    -202.924    -133.005
  N      -58.423    -201.704    -133.151
  C      -59.140    -203.517    -131.658
  C      -59.848    -204.642    -131.587
  O      -62.335    -208.495    -126.387
  O      -59.948    -208.834    -127.202
  H      -60.066    -209.511    -126.508
  H      -60.940    -209.239    -134.365
  H      -58.697    -203.029    -130.802
  H      -60.019    -205.136    -130.637
  H      -62.123    -206.275    -133.135
  H      -59.636    -207.297    -134.101
  H      -58.978    -207.946    -131.856
  H      -61.875    -208.884    -131.522
  H      -58.364    -201.322    -134.086
  H      -60.351    -209.689    -129.755
  H      -58.346    -201.041    -132.383
  H      -59.767    -208.038    -129.475
  P      -58.081    -210.181    -132.776
  C      -57.984    -212.211    -131.172
  O      -57.549    -210.895    -131.447
  O      -57.329    -208.767    -132.778
  O      -57.831    -210.931    -134.045
  H      -56.604    -208.782    -133.430
  H      -57.290    -212.669    -130.462
  H      -58.013    -212.820    -132.079
  H      -58.979    -212.179    -130.721
  H      -61.298    -204.610    -126.694
  H      -61.803    -205.879    -125.604
  H      -62.711    -205.569    -127.065

 3  4  5  6  7  8  9  10  11  12  13  24  27  28  29  30  32 0
 6-311+G(2d,p)
 ****
 34  35 0
 6-311+G(2d,p)
 ****
 1  2  14  15  16  17  18  19  20  21  22  23  25  26 0
 3-21G
 ****
 31  33  36  37  38  39  40  41  42  43  44  45  46 0
 3-21G
 ****


