%nproc=1
%NoSave
%Mem=1900MB
#P OB98/GEN NMR

erre ene a

0 1
  C     -276.935     -51.640     -77.689
  O     -278.230     -51.069     -77.577
  P     -278.843     -50.351     -78.875
  C     -277.589     -48.094     -78.714
  O     -278.828     -48.774     -78.572
  C     -277.804     -46.610     -78.991
  O     -276.512     -45.946     -79.046
  C     -278.535     -46.317     -80.311
  O     -279.514     -45.287     -80.089
  C     -277.444     -45.731     -81.194
  O     -277.977     -44.882     -82.204
  C     -276.591     -45.018     -80.148
  N     -272.730     -41.872     -79.309
  C     -273.814     -42.169     -78.508
  N     -273.911     -41.489     -77.345
  N     -274.725     -43.054     -78.817
  C     -274.489     -43.680     -79.998
  C     -273.443     -43.478     -80.872
  C     -272.477     -42.458     -80.546
  O     -271.541     -42.082     -81.256
  N     -273.537     -44.317     -81.953
  C     -274.630     -45.019     -81.739
  N     -275.268     -44.640     -80.585
  O     -280.395     -50.740     -78.798
  O     -278.243     -50.767     -80.175
  H     -278.318     -44.081     -81.756
  H     -280.664     -51.181     -79.627
  H     -272.066     -41.169     -79.028
  H     -275.010     -45.793     -82.400
  H     -277.100     -44.109     -79.791
  H     -276.898     -46.548     -81.675
  H     -273.224     -40.826     -77.023
  H     -279.014     -47.190     -80.768
  H     -274.685     -41.711     -76.733
  H     -278.351     -46.176     -78.140
  H     -277.029     -48.538     -79.545
  H     -277.005     -48.224     -77.793
  P     -280.899     -45.456     -80.888
  C     -279.693     -45.952     -83.139
  O     -280.567     -45.110     -82.415
  O     -281.764     -44.206     -80.391
  O     -281.584     -46.759     -80.643
  H     -282.718     -44.389     -80.487
  H     -279.454     -46.872     -82.593
  H     -278.762     -45.410     -83.342
  H     -280.160     -46.217     -84.092
  H     -276.657     -52.080     -76.754
  H     -276.230     -50.878     -77.948
  H     -276.942     -52.393     -78.450

 3  4  5  6  7  8  9  10  11  12  23  26  30  31  33  0
 6-311+G(2d,p)
 ****
 35  36  37  38 0
 6-311+G(2d,p)
 ****
 1  2  13  14  15  16  17  18  19  20  21  22  24  25  27  28  29 0
 3-21G
 ****
 32  34  39  40  41  42  43  44  45  46  47  48  49 0
 3-21G
 ****


