%nproc=1
%NoSave
%Mem=1900MB
#P OB98/GEN NMR

erre ene a

0 1
  C      353.964     428.237    -715.183
  O      353.964     429.480    -715.851
  H      352.941     427.865    -715.126
  H      354.347     428.362    -714.164
  H      354.576     427.510    -715.726
  P      355.400     430.118    -716.196
  C      356.195     431.373    -718.364
  O      355.148     431.094    -717.450
  C      355.619     431.764    -719.729
  O      354.969     430.599    -720.312
  C      354.587     432.891    -719.664
  O      354.720     433.699    -720.843
  C      353.255     432.155    -719.723
  O      352.197     432.981    -720.192
  C      353.615     430.965    -720.633
  N      352.699     429.830    -720.459
  C      351.737     429.649    -721.458
  O      351.682     430.417    -722.417
  N      350.831     428.621    -721.326
  C      350.847     427.889    -720.255
  N      349.908     426.901    -720.171
  C      351.815     428.079    -719.161
  C      352.706     429.054    -719.325
  O      356.170     428.871    -716.837
  O      356.096     430.743    -715.029
  H      351.469     432.406    -720.514
  H      355.628     428.368    -717.471
  H      351.779     427.443    -718.275
  H      353.457     429.256    -718.570
  H      353.590     431.263    -721.688
  H      352.986     431.792    -718.715
  H      354.690     433.513    -718.776
  H      356.451     432.029    -720.398
  H      349.253     426.817    -720.940
  H      356.841     430.496    -718.481
  H      349.790     426.311    -719.369
  H      356.795     432.196    -717.961
  P      355.518     435.087    -720.751
  C      357.223     436.371    -722.217
  O      356.171     435.418    -722.185
  O      356.437     435.238    -719.590
  O      354.323     436.168    -720.665
  H      354.587     436.850    -720.013
  H      357.562     436.494    -723.224
  H      358.033     436.029    -721.608
  H      356.867     437.308    -721.843

 6  7  8  9  10  11  12  13  14  15  16  26  30  31  32  33  35 0
 6-311+G(2d,p)
 ****
 37  38 0
 6-311+G(2d,p)
 ****
 1  2  3  4  5  17  18  19  20  21  22  23  24  25 0
 3-21G
 ****
 27  28  29  34  36  39  40  41  42  43  44  45  46 0
 3-21G
 ****


