%nproc=1
%NoSave
%Mem=1900MB
#P OB98/GEN NMR

erre ene a

0 1
  C     1346.709     -23.091     304.708
  O     1346.485     -22.098     305.682
  H     1347.763     -23.357     304.667
  H     1346.127     -23.985     304.967
  H     1346.378     -22.730     303.727
  P     1347.279     -20.718     305.514
  C     1349.026     -21.399     307.302
  O     1348.068     -20.443     306.887
  C     1349.924     -20.805     308.384
  O     1350.708     -19.731     307.800
  C     1349.161     -20.222     309.596
  O     1349.605     -20.874     310.794
  C     1349.586     -18.766     309.659
  O     1349.809     -18.295     310.977
  C     1350.862     -18.734     308.802
  N     1353.057     -14.199     309.540
  C     1353.321     -15.406     310.075
  N     1352.768     -16.598     309.766
  C     1351.870     -16.463     308.760
  C     1351.540     -15.292     308.104
  C     1352.152     -14.115     308.533
  N     1351.850     -12.871     308.025
  N     1350.572     -15.558     307.133
  C     1350.329     -16.835     307.235
  N     1351.066     -17.426     308.226
  O     1346.115     -19.618     305.513
  O     1348.125     -20.622     304.276
  H     1350.542     -18.840     311.344
  H     1346.243     -19.007     304.768
  H     1354.057     -15.418     310.872
  H     1349.586     -17.383     306.670
  H     1351.756     -18.997     309.407
  H     1348.792     -18.146     309.190
  H     1348.074     -20.317     309.504
  H     1350.632     -21.568     308.712
  H     1349.650     -21.684     306.441
  H     1352.258     -12.072     308.484
  H     1351.094     -12.794     307.365
  H     1348.505     -22.298     307.676
  P     1348.983     -22.317     311.097
  C     1347.107     -21.367     312.625
  O     1348.224     -22.245     312.510
  O     1350.276     -23.209     311.438
  O     1348.194     -22.886     309.973
  H     1350.116     -24.141     311.233
  H     1346.707     -21.426     313.616
  H     1346.355     -21.652     311.919
  H     1347.420     -20.363     312.426

 6  7  8  9  10  11  12  13  14  15  25  28  32  33  34  35 0
 6-311+G(2d,p)
 ****
 36  39  40 0
 6-311+G(2d,p)
 ****
 1  2  3  4  5  16  17  18  19  20  21  22  23  24 0
 3-21G
 ****
 26  27  29  30  31  37  38  41  42  43  44  45  46  47  48 0
 3-21G
 ****


