%nproc=1
%NoSave
%Mem=1900MB
#P OB98/GEN NMR

erre ene a

0 1
  C       40.215    -382.429     157.137
  O       41.438    -382.563     156.447
  H       40.414    -382.475     158.211
  H       39.551    -383.254     156.868
  H       39.729    -381.477     156.910
  P       41.515    -382.099     154.918
  C       41.806    -379.649     155.675
  O       41.079    -380.553     154.853
  C       41.449    -378.193     155.373
  O       42.073    -377.316     156.337
  C       41.953    -377.742     154.002
  O       41.111    -378.062     152.912
  C       42.058    -376.233     154.189
  O       40.793    -375.596     153.938
  C       42.442    -376.099     155.665
  N       46.011    -372.991     157.591
  C       44.639    -372.829     157.565
  N       44.165    -371.667     158.065
  N       43.818    -373.722     157.078
  C       44.439    -374.790     156.526
  C       45.790    -375.054     156.478
  C       46.690    -374.084     157.073
  O       47.912    -374.177     157.114
  N       46.048    -376.243     155.841
  C       44.865    -376.657     155.439
  N       43.853    -375.824     155.855
  O       40.264    -382.837     154.238
  O       42.790    -382.436     154.208
  H       40.455    -375.912     153.081
  H       40.433    -382.973     153.288
  H       46.592    -372.285     158.004
  H       44.681    -377.566     154.873
  H       41.887    -375.285     156.151
  H       42.779    -375.787     153.497
  H       44.764    -370.904     158.342
  H       42.959    -378.136     153.820
  H       43.208    -371.399     157.826
  H       40.365    -378.059     155.470
  H       42.865    -379.823     155.473
  H       41.634    -379.875     156.729
  P       41.613    -377.816     151.410
  C       42.400    -380.295     151.317
  O       42.716    -378.938     151.096
  O       42.465    -376.467     151.538
  O       40.528    -377.692     150.396
  H       41.920    -375.699     151.291
  H       43.241    -380.904     151.058
  H       41.562    -380.569     150.711
  H       42.158    -380.441     152.349

 6  7  8  9  10  11  12  13  14  15  26  29  33  34 0
 6-311+G(2d,p)
 ****
 36  38  39  40  41 0
 6-311+G(2d,p)
 ****
 1  2  3  4  5  16  17  18  19  20  21  22  23  24  25 0
 3-21G
 ****
 27  28  30  31  32  35  37  42  43  44  45  46  47 0
 3-21G
 ****
 48  49 0
 3-21G
 ****


