%nproc=1
%NoSave
%Mem=1900MB
#P OB98/GEN NMR

erre ene a

0 1
  C      184.137     -31.436     461.514
  O      185.130     -30.462     461.260
  H      183.523     -31.098     462.351
  H      184.603     -32.387     461.786
  H      183.493     -31.574     460.640
  P      186.110     -30.666     460.007
  C      186.967     -32.756     461.234
  O      187.327     -31.583     460.520
  C      188.215     -33.534     461.651
  O      188.879     -34.030     460.459
  C      189.229     -32.694     462.438
  O      189.810     -33.518     463.449
  C      190.277     -32.344     461.400
  O      191.558     -32.100     461.982
  C      190.243     -33.573     460.492
  N      193.777     -34.648     457.044
  C      193.536     -35.213     458.280
  N      194.374     -36.194     458.673
  N      192.559     -34.845     459.067
  C      191.788     -33.861     458.543
  C      191.923     -33.222     457.334
  C      193.017     -33.628     456.477
  O      193.284     -33.155     455.379
  N      190.957     -32.257     457.173
  C      190.245     -32.316     458.284
  N      190.715     -33.263     459.150
  O      186.534     -29.412     459.312
  O      185.300     -31.642     459.033
  H      191.833     -32.932     462.425
  H      184.881     -31.139     458.310
  H      194.549     -34.962     456.483
  H      189.390     -31.690     458.509
  H      190.876     -34.389     460.871
  H      189.970     -31.444     460.851
  H      195.140     -36.541     458.113
  H      188.785     -31.804     462.893
  H      194.206     -36.641     459.568
  H      187.902     -34.413     462.229
  H      186.346     -33.383     460.582
  H      186.383     -32.482     462.119
  P      189.160     -33.518     464.914
  C      190.252     -31.260     465.503
  O      190.087     -32.623     465.875
  O      188.786     -34.863     465.457
  O      187.861     -32.592     464.723
  H      187.172     -32.887     465.349
  H      190.885     -30.770     466.214
  H      189.297     -30.777     465.484
  H      190.698     -31.207     464.532

 6  7  8  9  10  11  12  13  14  15  26  29  33  34 0
 6-311+G(2d,p)
 ****
 36  38  39  40  41 0
 6-311+G(2d,p)
 ****
 1  2  3  4  5  16  17  18  19  20  21  22  23  24  25 0
 3-21G
 ****
 27  28  30  31  32  35  37  42  43  44  45  46  47 0
 3-21G
 ****
 48  49 0
 3-21G
 ****


