%nproc=1
%NoSave
%Mem=1900MB
#P OB98/GEN NMR

erre ene a

0 1
  C      922.023    -897.690    -256.605
  O      922.933    -898.500    -257.334
  P      922.702    -898.650    -258.923
  C      924.859    -897.630    -259.989
  O      923.497    -897.440    -259.634
  C      925.336    -896.470    -260.842
  O      924.538    -896.410    -262.047
  C      925.258    -895.090    -260.167
  O      926.345    -894.310    -260.671
  C      923.954    -894.540    -260.694
  O      923.885    -893.110    -260.607
  C      923.961    -895.080    -262.109
  N      920.533    -892.700    -264.967
  C      921.768    -892.280    -264.523
  N      922.175    -891.070    -264.958
  N      922.547    -892.980    -263.751
  C      922.026    -894.170    -263.395
  C      920.794    -894.700    -263.750
  C      919.969    -893.940    -264.646
  O      918.900    -894.320    -265.141
  N      920.582    -895.910    -263.146
  C      921.700    -896.160    -262.512
  N      922.620    -895.150    -262.671
  O      921.164    -898.230    -259.089
  O      923.011    -900.000    -259.497
  H      923.768    -892.880    -259.668
  H      920.594    -899.020    -259.083
  H      919.981    -892.130    -265.600
  H      921.911    -897.030    -261.913
  H      924.570    -894.480    -262.793
  H      923.111    -894.950    -260.114
  H      921.638    -890.480    -265.586
  H      925.302    -895.140    -259.083
  H      923.080    -890.730    -264.676
  H      926.380    -896.680    -261.152
  H      924.938    -898.570    -260.579
  H      925.468    -897.750    -259.080
  P      927.370    -893.670    -259.612
  C      929.225    -895.460    -259.785
  O      928.230    -894.860    -258.984
  O      926.411    -893.240    -258.403
  O      928.139    -892.500    -260.123
  H      926.768    -892.450    -257.973
  H      929.968    -895.940    -259.132
  H      929.741    -894.740    -260.402
  H      928.774    -896.220    -260.428
  H      922.299    -897.685    -255.571
  H      921.034    -898.084    -256.707
  H      922.050    -896.691    -256.987

 3  4  5  6  7  8  9  10  11  12  23  26  30  31 0
 6-311+G(2d,p)
 ****
 33  35  36  37  38 0
 6-311+G(2d,p)
 ****
 1  2  13  14  15  16  17  18  19  20  21  22  24  25 0
 3-21G
 ****
 27  28  29  32  34  39  40  41  42  43  44  45  46  47  48  49 0
 3-21G
 ****


