%nproc=1
%NoSave
%Mem=1900MB
#P OB98/GEN NMR

erre ene a

0 1
  C     -334.876     548.896    -150.951
  O     -335.311     548.231    -152.123
  H     -335.730     549.412    -150.508
  H     -334.106     549.633    -151.192
  H     -334.491     548.173    -150.225
  P     -334.230     547.424    -152.987
  C     -335.927     545.525    -153.423
  O     -335.070     546.503    -154.001
  C     -336.314     544.480    -154.467
  O     -337.026     545.096    -155.558
  C     -335.125     543.746    -155.089
  O     -334.680     542.703    -154.234
  C     -335.758     543.223    -156.367
  O     -336.589     542.079    -156.069
  C     -336.644     544.418    -156.787
  N     -334.091     545.070    -161.123
  C     -334.468     543.903    -160.484
  N     -334.080     542.747    -161.071
  N     -335.150     543.868    -159.372
  C     -335.403     545.102    -158.861
  C     -335.063     546.327    -159.389
  C     -334.367     546.350    -160.660
  O     -334.038     547.362    -161.277
  N     -335.410     547.352    -158.545
  C     -336.005     546.749    -157.531
  N     -336.014     545.381    -157.668
  O     -333.185     546.679    -152.213
  O     -333.590     548.531    -153.948
  H     -337.237     542.365    -155.398
  H     -332.794     548.929    -153.548
  H     -333.554     545.032    -161.979
  H     -336.439     547.253    -156.679
  H     -337.568     544.088    -157.277
  H     -335.025     542.908    -157.106
  H     -333.434     542.712    -161.847
  H     -334.315     544.435    -155.349
  H     -334.302     541.883    -160.586
  H     -337.005     543.771    -153.990
  H     -336.819     546.042    -153.056
  H     -335.434     545.034    -152.577
  P     -333.205     542.079    -154.360
  C     -333.240     541.696    -151.805
  O     -333.036     541.124    -153.084
  O     -332.118     543.083    -154.539
  O     -333.320     541.022    -155.554
  H     -333.204     541.431    -156.445
  H     -333.095     540.949    -151.053
  H     -334.237     542.079    -151.740
  H     -332.542     542.493    -151.655

 6  7  8  9  10  11  12  13  14  15  26  29  33  34 0
 6-311+G(2d,p)
 ****
 36  38  39  40  41 0
 6-311+G(2d,p)
 ****
 1  2  3  4  5  16  17  18  19  20  21  22  23  24  25 0
 3-21G
 ****
 27  28  30  31  32  35  37  42  43  44  45  46  47 0
 3-21G
 ****
 48  49 0
 3-21G
 ****


