%nproc=1
%NoSave
%Mem=1900MB
#P OB98/GEN NMR

erre ene a

0 1
  C      -94.704      46.231     -15.223
  O      -94.751      46.852     -16.494
  P      -95.103      45.990     -17.796
  C      -92.626      45.202     -17.928
  O      -93.991      44.841     -17.911
  C      -91.725      43.960     -17.956
  O      -91.983      43.197     -16.751
  C      -91.985      43.005     -19.117
  O      -90.848      42.151     -19.266
  C      -93.159      42.202     -18.603
  O      -93.310      40.964     -19.291
  C      -92.852      42.088     -17.089
  N      -94.083      42.139     -16.280
  C      -94.206      41.198     -15.260
  O      -93.312      40.402     -14.973
  N      -95.423      41.146     -14.638
  C      -96.511      41.897     -14.970
  O      -97.658      41.632     -14.625
  C      -96.251      43.025     -15.880
  C      -95.072      43.078     -16.506
  O      -94.746      46.990     -18.992
  O      -96.514      45.513     -17.872
  H      -94.070      40.497     -18.873
  H      -95.550      47.448     -19.300
  H      -95.559      40.370     -14.000
  H      -97.048      43.735     -16.054
  H      -94.870      43.871     -17.223
  H      -92.332      41.150     -16.855
  H      -94.081      42.779     -18.757
  H      -92.212      43.503     -20.064
  H      -90.674      44.272     -17.940
  H      -92.405      45.818     -17.052
  H      -92.406      45.820     -18.805
  P      -90.330      41.843     -20.753
  C      -91.329      39.496     -20.447
  O      -91.218      40.622     -21.296
  O      -88.856      41.687     -20.913
  O      -90.892      43.088     -21.595
  H      -90.400      43.167     -22.432
  H      -92.289      39.006     -20.634
  H      -91.276      39.782     -19.392
  H      -90.523      38.794     -20.674
  H      -94.455      46.959     -14.479
  H      -93.962      45.460     -15.230
  H      -95.659      45.804     -14.999

 3  4  5  6  7  8  9  10  11  12  13  23  28  29  30  31  32 0
 6-311+G(2d,p)
 ****
 33  34 0
 6-311+G(2d,p)
 ****
 1  2  14  15  16  17  18  19  20  21  22  24  25  26  27 0
 3-21G
 ****
 35  36  37  38  39  40  41  42  43  44  45 0
 3-21G
 ****


