%nproc=1
%NoSave
%Mem=1900MB
#P OB98/GEN NMR

erre ene a

0 1
  C      169.323     183.642     357.295
  O      170.018     184.422     358.264
  P      170.011     183.884     359.781
  C      168.098     185.582     360.289
  O      168.574     184.241     360.388
  C      166.675     185.680     360.832
  O      165.760     184.985     359.960
  C      166.476     185.053     362.208
  O      167.004     185.881     363.231
  C      164.964     184.899     362.232
  O      164.341     186.160     362.536
  C      164.660     184.495     360.776
  N      161.382     180.559     360.691
  C      161.196     181.882     360.933
  N      162.121     182.861     360.959
  C      163.346     182.369     360.691
  C      163.686     181.044     360.450
  C      162.636     180.115     360.449
  N      162.821     178.769     360.202
  N      165.046     180.921     360.240
  C      165.518     182.151     360.350
  N      164.531     183.057     360.609
  O      170.993     184.903     360.527
  O      170.443     182.462     359.943
  H      163.369     186.018     362.512
  H      171.493     184.452     361.233
  H      160.178     182.187     361.130
  H      166.556     182.420     360.237
  H      163.739     184.958     360.398
  H      164.613     184.171     362.979
  H      166.954     184.065     362.253
  H      166.387     186.740     360.856
  H      168.098     185.890     359.239
  H      162.043     178.152     360.372
  H      163.775     178.420     360.177
  H      168.775     186.239     360.842
  P      167.421     185.173     364.611
  C      165.090     185.739     365.543
  O      166.005     184.703     365.239
  O      167.799     186.439     365.523
  O      168.460     184.114     364.488
  H      167.124     187.132     365.483
  H      164.170     185.286     365.912
  H      164.861     186.327     364.652
  H      165.498     186.389     366.323
  H      169.406     184.108     356.336
  H      168.291     183.570     357.569
  H      169.750     182.662     357.253

 3  4  5  6  7  8  9  10  11  12  22  25  29  30  31  32 0
 6-311+G(2d,p)
 ****
 33  36  37 0
 6-311+G(2d,p)
 ****
 1  2  13  14  15  16  17  18  19  20  21  23  24  26 0
 3-21G
 ****
 27  28  34  35  38  39  40  41  42  43  44  45  46  47  48 0
 3-21G
 ****


