%nproc=1
%NoSave
%Mem=1900MB
#P OB98/GEN NMR

erre ene a

0 1
  C     -658.397     546.314     232.281
  O     -657.631     545.346     231.585
  H     -659.011     546.861     231.556
  H     -657.749     547.026     232.798
  H     -659.058     545.820     232.999
  P     -656.460     544.593     232.386
  C     -654.883     546.633     232.179
  O     -655.585     545.755     233.064
  C     -653.402     546.730     232.560
  O     -653.269     547.245     233.901
  C     -652.681     545.387     232.568
  O     -652.506     544.818     231.292
  C     -651.468     545.676     233.440
  O     -650.366     546.229     232.718
  C     -652.026     546.734     234.429
  N     -652.188     546.193     235.773
  C     -651.014     545.945     236.475
  O     -649.889     546.141     236.007
  N     -651.164     545.420     237.733
  C     -652.352     545.080     238.314
  O     -652.414     544.572     239.435
  C     -653.560     545.337     237.518
  C     -653.423     545.870     236.297
  O     -655.647     543.616     231.586
  O     -657.219     543.938     233.634
  H     -649.643     546.358     233.358
  H     -656.663     543.230     234.055
  H     -650.323     545.245     238.259
  H     -654.521     545.074     237.953
  H     -654.309     546.073     235.690
  H     -651.341     547.589     234.495
  H     -651.108     544.773     233.936
  H     -653.299     544.677     233.136
  H     -652.913     547.434     231.874
  H     -655.341     547.627     232.264
  H     -654.992     546.273     231.149
  P     -651.959     543.332     231.063
  C     -649.574     544.373     231.152
  O     -650.414     543.283     231.519
  O     -652.347     542.656     229.780
  O     -652.690     542.539     232.268
  H     -652.881     541.638     231.942
  H     -648.585     544.201     231.521
  H     -649.960     545.278     231.573
  H     -649.547     544.459     230.086

 6  7  8  9  10  11  12  13  14  15  16  26  31  32  33  34  35 0
 6-311+G(2d,p)
 ****
 36  37 0
 6-311+G(2d,p)
 ****
 1  2  3  4  5  17  18  19  20  21  22  23  24  25 0
 3-21G
 ****
 27  28  29  30  38  39  40  41  42  43  44  45 0
 3-21G
 ****


