%nproc=1
%NoSave
%Mem=1900MB
#P OB98/GEN NMR

erre ene a

0 1
  C     -903.603     867.202     130.194
  O     -904.752     867.983     129.871
  P     -905.531     867.690     128.477
  C     -907.813     866.574     129.140
  O     -907.104     867.753     128.742
  C     -908.823     866.884     130.248
  O     -908.158     867.301     131.452
  C     -909.773     868.042     129.913
  O     -910.805     867.611     128.991
  C     -910.311     868.390     131.286
  O     -911.388     867.540     131.672
  C     -909.068     868.165     132.182
  N     -908.424     869.431     132.559
  C     -909.219     870.365     133.150
  O     -910.447     870.246     133.269
  N     -908.617     871.539     133.557
  C     -907.277     871.844     133.352
  O     -906.782     872.918     133.706
  C     -906.471     870.816     132.669
  C     -907.083     869.683     132.291
  O     -905.309     866.112     128.296
  O     -905.050     868.441     127.298
  H     -911.081     866.628     131.654
  H     -905.313     865.896     127.353
  H     -909.185     872.237     133.983
  H     -905.440     871.028     132.475
  H     -906.524     868.889     131.787
  H     -909.344     867.617     133.091
  H     -910.695     869.448     131.320
  H     -909.222     868.885     129.495
  H     -909.392     865.967     130.468
  H     -907.101     865.824     129.522
  H     -908.309     866.151     128.247
  P     -910.977     868.516     127.677
  C     -911.093     866.655     125.818
  O     -911.782     867.573     126.631
  O     -909.472     868.527     127.100
  O     -911.554     869.857     127.947
  H     -909.024     867.718     127.311
  H     -910.213     866.248     126.330
  H     -910.807     867.131     124.890
  H     -911.773     865.817     125.587
  H     -903.210     867.518     131.138
  H     -902.859     867.332     129.436
  H     -903.878     866.169     130.250

 3  4  5  6  7  8  9  10  11  12  13  23  28  29  30  31  32 0
 6-311+G(2d,p)
 ****
 33  34 0
 6-311+G(2d,p)
 ****
 1  2  14  15  16  17  18  19  20  21  22  24  25  26 0
 3-21G
 ****
 27  35  36  37  38  39  40  41  42  43  44  45 0
 3-21G
 ****


