%nproc=1
%NoSave
%Mem=1900MB
#P OB98/GEN NMR

erre ene a

0 1
  C      -62.005      42.090      19.599
  O      -61.645      40.866      18.982
  P      -60.751      39.849      19.850
  C      -58.295      39.895      20.739
  O      -59.275      40.469      19.889
  C      -56.914      40.441      20.374
  O      -56.597      40.127      19.004
  C      -56.783      41.952      20.506
  O      -56.542      42.314      21.854
  C      -55.612      42.238      19.573
  O      -54.357      41.967      20.225
  C      -55.865      41.245      18.429
  N      -55.676      44.485      14.554
  C      -54.789      44.292      15.596
  N      -53.666      45.044      15.574
  N      -54.981      43.440      16.567
  C      -56.152      42.768      16.465
  C      -57.117      42.880      15.492
  C      -56.867      43.788      14.397
  O      -57.573      43.924      13.401
  N      -58.179      42.050      15.740
  C      -57.839      41.415      16.843
  N      -56.610      41.798      17.313
  O      -60.618      38.578      18.892
  O      -61.308      39.502      21.195
  H      -54.165      42.680      20.861
  H      -61.260      37.886      19.143
  H      -55.466      45.142      13.825
  H      -58.436      40.657      17.327
  H      -54.932      40.841      18.020
  H      -55.582      43.286      19.259
  H      -53.462      45.738      14.872
  H      -57.685      42.448      20.129
  H      -53.006      44.920      16.333
  H      -56.176      39.935      21.010
  H      -58.300      38.810      20.611
  H      -58.542      40.131      21.780
  P      -57.277      43.626      22.411
  C      -57.197      46.163      21.869
  O      -56.619      44.886      21.677
  O      -56.744      43.735      23.917
  O      -58.768      43.565      22.367
  H      -57.455      44.072      24.493
  H      -56.413      46.919      21.783
  H      -57.670      46.250      22.851
  H      -57.946      46.338      21.093
  H      -62.594      42.671      18.921
  H      -61.120      42.633      19.858
  H      -62.572      41.890      20.484

 3  4  5  6  7  8  9  10  11  12  23  26  30  31 0
 6-311+G(2d,p)
 ****
 33  35  36  37  38 0
 6-311+G(2d,p)
 ****
 1  2  13  14  15  16  17  18  19  20  21  22  24  25 0
 3-21G
 ****
 27  28  29  32  34  39  40  41  42  43  44  45  46  47  48  49 0
 3-21G
 ****


