%nproc=1
%NoSave
%Mem=1900MB
#P OB98/GEN NMR

erre ene a

0 1
  C     -265.549     169.257      46.505
  O     -265.554     168.812      47.846
  H     -264.882     170.126      46.421
  H     -266.555     169.553      46.194
  H     -265.177     168.467      45.844
  P     -266.559     167.604      48.189
  C     -269.052     167.801      48.935
  O     -268.012     168.287      48.103
  C     -269.411     168.855      49.983
  O     -268.313     169.044      50.908
  C     -269.697     170.237      49.404
  O     -270.997     170.351      48.850
  C     -269.549     171.090      50.652
  O     -270.714     170.943      51.485
  C     -268.311     170.435      51.311
  N     -267.046     171.083      50.930
  C     -266.941     172.458      51.152
  O     -267.886     173.089      51.637
  N     -265.778     173.107      50.785
  C     -264.799     172.437      50.257
  N     -263.689     173.129      49.904
  C     -264.859     170.980      50.019
  C     -265.986     170.379      50.376
  O     -266.372     167.399      49.770
  O     -266.377     166.364      47.383
  H     -270.737     170.006      51.771
  H     -267.040     166.755      50.109
  H     -264.020     170.458      49.572
  H     -266.111     169.302      50.228
  H     -268.385     170.469      52.405
  H     -269.440     172.157      50.435
  H     -268.931     170.539      48.682
  H     -270.263     168.477      50.568
  H     -263.689     174.132      50.021
  H     -268.705     166.890      49.430
  H     -262.957     172.731      49.325
  H     -269.938     167.569      48.340
  P     -271.358     171.705      48.075
  C     -272.829     173.801      48.572
  O     -272.331     172.546      49.035
  O     -272.360     171.209      46.921
  O     -270.187     172.454      47.515
  H     -272.191     171.691      46.084
  H     -273.458     174.234      49.322
  H     -273.393     173.652      47.675
  H     -272.009     174.458      48.372

 6  7  8  9  10  11  12  13  14  15  16  26  30  31  32  33  35 0
 6-311+G(2d,p)
 ****
 37  38 0
 6-311+G(2d,p)
 ****
 1  2  3  4  5  17  18  19  20  21  22  23  24  25 0
 3-21G
 ****
 27  28  29  34  36  39  40  41  42  43  44  45  46 0
 3-21G
 ****


