%nproc=1
%NoSave
%Mem=1900MB
#P OB98/GEN NMR

erre ene a

0 1
  C     -201.487    -663.588    -110.739
  O     -200.521    -664.245    -109.937
  H     -201.053    -662.668    -111.133
  H     -202.360    -663.334    -110.130
  H     -201.788    -664.226    -111.575
  P     -200.927    -665.670    -109.330
  C     -201.358    -667.866    -110.636
  O     -200.484    -666.772    -110.419
  C     -200.785    -668.816    -111.693
  O     -200.776    -668.122    -112.982
  C     -199.348    -669.282    -111.406
  O     -199.223    -670.632    -111.882
  C     -198.510    -668.390    -112.317
  O     -197.233    -668.940    -112.596
  C     -199.443    -668.278    -113.522
  N     -196.843    -667.049    -117.660
  C     -197.058    -668.282    -117.060
  N     -196.490    -669.350    -117.659
  N     -197.766    -668.448    -115.977
  C     -198.300    -667.296    -115.505
  C     -198.163    -666.010    -115.998
  C     -197.355    -665.844    -117.186
  O     -197.111    -664.778    -117.752
  N     -198.837    -665.108    -115.217
  C     -199.391    -665.842    -114.260
  N     -199.091    -667.169    -114.387
  O     -202.528    -665.653    -109.437
  O     -200.461    -665.928    -107.935
  H     -196.816    -668.406    -113.305
  H     -202.915    -665.336    -108.600
  H     -196.280    -666.979    -118.486
  H     -199.999    -665.456    -113.447
  H     -199.425    -669.185    -114.143
  H     -198.367    -667.405    -111.840
  H     -195.976    -669.307    -118.522
  H     -199.055    -669.231    -110.360
  H     -196.670    -670.272    -117.262
  H     -201.462    -669.666    -111.802
  H     -202.331    -667.492    -110.979
  H     -201.499    -668.412    -109.693
  P     -199.444    -671.828    -110.834
  C     -200.822    -671.345    -108.679
  O     -200.841    -671.576    -110.083
  O     -198.360    -671.500    -109.694
  O     -199.243    -673.197    -111.405
  H     -198.089    -672.325    -109.253
  H     -201.822    -671.196    -108.329
  H     -200.237    -670.474    -108.469
  H     -200.393    -672.191    -108.184

 6  7  8  9  10  11  12  13  14  15  26  29  33  34 0
 6-311+G(2d,p)
 ****
 36  38  39  40  41 0
 6-311+G(2d,p)
 ****
 1  2  3  4  5  16  17  18  19  20  21  22  23  24  25 0
 3-21G
 ****
 27  28  30  31  32  35  37  42  43  44  45  46  47 0
 3-21G
 ****
 48  49 0
 3-21G
 ****


