%nproc=1
%NoSave
%Mem=1900MB
#P OB98/GEN NMR

erre ene a

0 1
  C      112.107      45.237      26.955
  O      111.891      44.179      27.868
  H      112.055      46.184      27.497
  H      111.327      45.226      26.190
  H      113.092      45.152      26.487
  P      112.249      42.699      27.359
  C      114.279      41.669      26.110
  O      113.537      42.842      26.412
  C      114.811      41.730      24.682
  O      113.722      41.655      23.736
  C      115.578      43.007      24.352
  O      116.933      42.926      24.775
  C      115.480      43.010      22.835
  O      116.418      42.059      22.286
  C      114.044      42.517      22.608
  N      110.719      44.879      19.594
  C      111.617      43.870      19.303
  N      111.637      43.434      18.025
  N      112.426      43.338      20.182
  C      112.312      43.889      21.414
  C      111.466      44.896      21.822
  C      110.566      45.463      20.845
  O      109.743      46.351      21.054
  N      111.637      45.191      23.150
  C      112.601      44.379      23.537
  N      113.047      43.571      22.521
  O      111.057      42.380      26.336
  O      112.338      41.663      28.428
  H      116.322      42.091      21.316
  H      110.415      41.790      26.774
  H      110.126      45.260      18.877
  H      113.005      44.332      24.539
  H      113.951      41.915      21.698
  H      115.721      43.980      22.399
  H      111.058      43.815      17.293
  H      115.079      43.896      24.754
  H      112.286      42.693      17.790
  H      115.443      40.847      24.521
  H      113.625      40.796      26.219
  H      115.112      41.584      26.816
  P      117.803      44.274      24.793
  C      117.412      46.699      25.625
  O      116.823      45.457      25.263
  O      118.026      44.568      23.236
  O      119.100      44.183      25.521
  H      118.967      44.441      23.005
  H      116.645      47.387      25.914
  H      117.950      47.096      24.789
  H      118.084      46.550      26.444

 6  7  8  9  10  11  12  13  14  15  26  29  33  34 0
 6-311+G(2d,p)
 ****
 36  38  39  40  41 0
 6-311+G(2d,p)
 ****
 1  2  3  4  5  16  17  18  19  20  21  22  23  24  25 0
 3-21G
 ****
 27  28  30  31  32  35  37  42  43  44  45  46  47 0
 3-21G
 ****
 48  49 0
 3-21G
 ****


