%nproc=1
%NoSave
%Mem=1900MB
#P OB98/GEN NMR

erre ene a

0 1
  C     -896.080     624.852    -448.502
  O     -895.790     625.146    -447.131
  P     -896.230     624.234    -445.896
  C     -893.960     625.056    -444.859
  O     -895.300     624.612    -444.646
  C     -893.460     625.997    -443.740
  O     -894.220     627.223    -443.741
  C     -893.670     625.346    -442.365
  O     -892.720     624.423    -441.863
  C     -893.950     626.529    -441.430
  O     -892.760     626.989    -440.781
  C     -894.500     627.600    -442.384
  N     -898.110     630.311    -439.976
  C     -896.740     630.338    -439.811
  N     -896.270     631.176    -438.848
  N     -895.910     629.618    -440.512
  C     -896.510     628.781    -441.382
  C     -897.870     628.638    -441.624
  C     -898.780     629.488    -440.880
  O     -900.000     629.501    -441.005
  N     -898.110     627.669    -442.568
  C     -896.920     627.202    -442.862
  N     -895.900     627.842    -442.183
  O     -896.390     622.773    -446.196
  O     -897.670     624.823    -445.491
  H     -892.980     627.795    -440.289
  H     -898.200     624.069    -445.158
  H     -898.710     630.898    -439.426
  H     -896.720     626.401    -443.585
  H     -893.980     628.556    -442.226
  H     -894.640     626.228    -440.646
  H     -896.870     631.655    -438.202
  H     -894.610     624.796    -442.417
  H     -895.300     631.041    -438.575
  H     -892.420     626.293    -443.926
  H     -893.940     625.572    -445.819
  H     -893.300     624.201    -444.945
  P     -892.970     622.863    -441.606
  C     -890.430     622.683    -441.979
  O     -891.560     622.177    -441.271
  O     -893.300     622.276    -443.061
  O     -894.060     622.543    -440.647
  H     -893.710     621.389    -442.996
  H     -889.610     621.967    -441.894
  H     -890.110     623.630    -441.526
  H     -890.670     622.846    -443.037
  H     -895.674     625.621    -449.125
  H     -897.140     624.804    -448.640
  H     -895.643     623.912    -448.765

 3  4  5  6  7  8  9  10  11  12  23  26  30  31 0
 6-311+G(2d,p)
 ****
 33  35  36  37  38 0
 6-311+G(2d,p)
 ****
 1  2  13  14  15  16  17  18  19  20  21  22  24  25 0
 3-21G
 ****
 27  28  29  32  34  39  40  41  42  43  44  45  46  47  48  49 0
 3-21G
 ****


