%nproc=1
%NoSave
%Mem=1900MB
#P OB98/GEN NMR

erre ene a

0 1
  C     -707.854     275.400    -493.673
  O     -708.642     275.198    -492.519
  H     -708.492     275.787    -494.470
  H     -707.421     274.451    -494.000
  H     -707.056     276.121    -493.470
  P     -707.894     274.620    -491.224
  C     -708.890     276.598    -489.875
  O     -707.724     275.854    -490.209
  C     -708.534     277.783    -488.969
  O     -708.200     277.276    -487.637
  C     -707.332     278.601    -489.467
  O     -707.576     279.986    -489.192
  C     -706.197     278.115    -488.590
  O     -705.142     279.065    -488.499
  C     -706.936     277.866    -487.277
  N     -703.319     277.814    -483.778
  C     -703.887     278.875    -484.461
  N     -703.423     280.114    -484.184
  N     -704.829     278.729    -485.348
  C     -705.217     277.440    -485.517
  C     -704.731     276.311    -484.918
  C     -703.667     276.483    -483.944
  O     -703.107     275.588    -483.319
  N     -705.369     275.183    -485.373
  C     -706.234     275.634    -486.267
  N     -706.187     277.001    -486.387
  O     -706.397     274.367    -491.736
  O     -708.500     273.389    -490.619
  H     -705.500     279.876    -488.079
  H     -705.984     273.621    -491.254
  H     -702.585     277.982    -483.107
  H     -706.918     275.020    -486.847
  H     -707.136     278.791    -486.725
  H     -705.780     277.177    -488.987
  H     -702.725     280.299    -483.480
  H     -707.127     278.469    -490.528
  H     -703.838     280.901    -484.663
  H     -709.418     278.414    -488.845
  H     -709.592     275.935    -489.352
  H     -709.367     276.967    -490.790
  P     -707.278     281.044    -490.363
  C     -709.655     280.927    -491.411
  O     -708.259     280.722    -491.598
  O     -705.845     280.575    -490.901
  O     -707.259     282.463    -489.909
  H     -705.171     281.232    -490.634
  H     -710.176     280.673    -492.310
  H     -709.836     281.954    -491.172
  H     -710.002     280.308    -490.610

 6  7  8  9  10  11  12  13  14  15  26  29  33  34 0
 6-311+G(2d,p)
 ****
 36  38  39  40  41 0
 6-311+G(2d,p)
 ****
 1  2  3  4  5  16  17  18  19  20  21  22  23  24  25 0
 3-21G
 ****
 27  28  30  31  32  35  37  42  43  44  45  46  47 0
 3-21G
 ****
 48  49 0
 3-21G
 ****


