%nproc=1
%NoSave
%Mem=1900MB
#P OB98/GEN NMR

erre ene a

0 1
  C     1146.961     194.940    1381.143
  O     1145.802     195.312    1381.880
  P     1144.373     195.152    1381.138
  C     1144.705     196.699    1379.052
  O     1144.108     196.522    1380.361
  C     1143.783     197.547    1378.190
  O     1142.533     196.853    1377.948
  C     1143.392     198.905    1378.781
  O     1144.407     199.881    1378.608
  C     1142.181     199.243    1377.952
  O     1142.560     199.777    1376.682
  C     1141.482     197.892    1377.772
  N     1136.577     198.587    1378.755
  C     1137.294     198.813    1377.580
  N     1136.618     199.308    1376.522
  N     1138.559     198.515    1377.427
  C     1139.126     198.010    1378.587
  C     1138.520     197.745    1379.788
  C     1137.115     198.081    1379.921
  O     1136.452     197.991    1380.955
  N     1139.403     197.215    1380.683
  C     1140.544     197.143    1380.031
  N     1140.435     197.629    1378.740
  O     1143.311     195.206    1382.346
  O     1144.236     193.912    1380.337
  H     1143.260     200.445    1376.839
  H     1142.477     194.852    1382.071
  H     1135.602     198.842    1378.815
  H     1141.472     196.765    1380.413
  H     1141.075     197.748    1376.771
  H     1141.529     200.008    1378.422
  H     1135.640     199.608    1376.601
  H     1143.101     198.791    1379.839
  H     1137.093     199.544    1375.680
  H     1144.288     197.724    1377.212
  H     1144.858     195.718    1378.605
  H     1145.666     197.179    1379.172
  P     1145.193     200.337    1379.928
  C     1143.420     202.194    1380.397
  O     1144.770     201.871    1380.163
  O     1146.730     200.450    1379.416
  O     1145.051     199.415    1381.102
  H     1147.348     200.306    1380.178
  H     1143.355     203.200    1380.800
  H     1142.968     201.499    1381.153
  H     1142.853     202.139    1379.456
  H     1147.832     195.094    1381.746
  H     1147.029     195.539    1380.259
  H     1146.894     193.908    1380.870

 3  4  5  6  7  8  9  10  11  12  23  26  30  31 0
 6-311+G(2d,p)
 ****
 33  35  36  37  38 0
 6-311+G(2d,p)
 ****
 1  2  13  14  15  16  17  18  19  20  21  22  24  25 0
 3-21G
 ****
 27  28  29  32  34  39  40  41  42  43  44  45  46  47  48  49 0
 3-21G
 ****


