%nproc=1
%NoSave
%Mem=1900MB
#P OB98/GEN NMR

erre ene a

0 1
  C      -35.755    -194.229     210.671
  O      -34.719    -193.291     210.473
  H      -35.995    -194.695     209.708
  H      -36.651    -193.727     211.045
  H      -35.449    -195.010     211.373
  P      -34.036    -192.610     211.756
  C      -34.765    -190.310     210.847
  O      -33.691    -191.096     211.348
  C      -34.450    -188.823     211.029
  O      -35.542    -188.020     210.526
  C      -34.259    -188.402     212.485
  O      -32.995    -188.815     212.971
  C      -34.442    -186.895     212.370
  O      -33.245    -186.269     211.889
  C      -35.577    -186.805     211.312
  N      -36.899    -186.600     211.901
  C      -37.469    -185.342     211.718
  O      -36.896    -184.422     211.131
  N      -38.724    -185.170     212.248
  C      -39.406    -186.085     213.002
  O      -40.508    -185.859     213.499
  C      -38.734    -187.377     213.193
  C      -37.537    -187.577     212.644
  O      -32.905    -193.364     212.371
  O      -35.254    -192.436     212.780
  H      -32.525    -186.523     212.501
  H      -35.229    -193.149     213.447
  H      -39.148    -184.265     212.133
  H      -39.249    -188.130     213.792
  H      -37.028    -188.522     212.776
  H      -35.378    -185.974     210.616
  H      -34.685    -186.427     213.322
  H      -35.067    -188.809     213.109
  H      -33.554    -188.590     210.435
  H      -35.674    -190.558     211.404
  H      -34.919    -190.546     209.791
  P      -32.879    -189.716     214.290
  C      -33.097    -187.669     215.815
  O      -32.291    -188.783     215.465
  O      -32.163    -191.018     214.113
  O      -34.399    -189.948     214.735
  H      -34.669    -190.869     214.533
  H      -32.622    -187.117     216.599
  H      -34.054    -188.012     216.150
  H      -33.223    -187.038     214.960

 6  7  8  9  10  11  12  13  14  15  16  26  31  32  33  34  35 0
 6-311+G(2d,p)
 ****
 36  37 0
 6-311+G(2d,p)
 ****
 1  2  3  4  5  17  18  19  20  21  22  23  24  25 0
 3-21G
 ****
 27  28  29  30  38  39  40  41  42  43  44  45 0
 3-21G
 ****


