%nproc=1
%NoSave
%Mem=1900MB
#P OB98/GEN NMR

erre ene a

0 1
  C      153.658     236.153       8.650
  O      153.618     235.255       9.744
  H      153.235     235.658       7.771
  H      154.696     236.433       8.426
  H      153.068     237.046       8.872
  P      154.232     235.782      11.131
  C      153.517     235.528      13.610
  O      153.284     235.143      12.258
  C      152.638     234.709      14.556
  O      151.246     234.972      14.294
  C      152.823     233.195      14.440
  O      153.938     232.769      15.200
  C      151.513     232.701      15.038
  O      151.606     232.719      16.477
  C      150.496     233.758      14.564
  N      145.888     232.404      12.734
  C      146.354     232.513      14.004
  N      147.605     232.823      14.412
  C      148.415     233.046      13.365
  C      148.076     232.965      12.018
  C      146.744     232.632      11.708
  N      146.272     232.523      10.416
  N      149.165     233.256      11.215
  C      150.130     233.559      12.069
  N      149.737     233.410      13.379
  O      154.461     237.254      11.217
  O      155.555     234.883      11.238
  H      152.461     232.309      16.714
  H      155.369     233.969      10.957
  H      145.631     232.319      14.786
  H      151.119     233.913      11.794
  H      149.763     233.994      15.351
  H      151.279     231.674      14.749
  H      152.883     232.876      13.391
  H      152.846     235.046      15.583
  H      153.309     236.597      13.740
  H      145.369     232.096      10.296
  H      146.943     232.568       9.667
  H      154.575     235.350      13.825
  P      154.462     231.250      15.124
  C      156.254     229.948      16.439
  O      155.797     231.231      16.014
  O      154.598     230.713      13.740
  O      153.424     230.427      16.018
  H      153.502     229.471      15.816
  H      157.145     230.061      17.021
  H      156.462     229.342      15.582
  H      155.498     229.479      17.033

 6  7  8  9  10  11  12  13  14  15  25  28  32  33  34  35 0
 6-311+G(2d,p)
 ****
 36  39  40 0
 6-311+G(2d,p)
 ****
 1  2  3  4  5  16  17  18  19  20  21  22  23  24 0
 3-21G
 ****
 26  27  29  30  31  37  38  41  42  43  44  45  46  47 0
 3-21G
 ****
 48 0
 3-21G
 ****


