%nproc=1
%NoSave
%Mem=1900MB
#P OB98/GEN NMR

erre ene a

0 1
  C      167.114     436.605     247.618
  O      168.139     436.521     248.590
  H      166.146     436.620     248.123
  H      167.155     435.740     246.948
  H      167.216     437.525     247.033
  P      169.640     436.394     248.031
  C      170.111     434.008     248.984
  O      170.342     435.408     249.088
  C      171.058     433.258     249.910
  O      170.748     431.851     249.923
  C      172.528     433.347     249.507
  O      173.128     434.579     249.879
  C      173.095     432.182     250.297
  O      173.217     432.544     251.686
  C      171.994     431.120     250.095
  N      172.236     430.247     248.945
  C      172.915     429.042     249.196
  O      173.288     428.762     250.343
  N      173.189     428.201     248.142
  C      172.809     428.523     246.938
  N      173.121     427.662     245.934
  C      172.079     429.764     246.634
  C      171.828     430.568     247.665
  O      170.297     437.811     248.395
  O      169.783     435.995     246.598
  H      173.495     431.746     252.162
  H      171.269     437.788     248.204
  H      171.796     429.996     245.620
  H      171.302     431.505     247.516
  H      171.882     430.490     250.997
  H      174.087     431.878     249.959
  H      172.665     433.147     248.439
  H      170.899     433.642     250.934
  H      173.671     426.842     246.172
  H      170.277     433.701     247.940
  H      173.028     427.902     244.960
  H      169.076     433.783     249.261
  P      173.972     435.360     248.749
  C      176.030     434.607     250.152
  O      175.430     435.630     249.363
  O      173.301     436.819     248.744
  O      173.949     434.728     247.390
  H      173.235     437.178     247.846
  H      176.992     434.933     250.487
  H      176.139     433.720     249.563
  H      175.409     434.399     250.998

 6  7  8  9  10  11  12  13  14  15  16  26  30  31  32  33  35 0
 6-311+G(2d,p)
 ****
 37  38 0
 6-311+G(2d,p)
 ****
 1  2  3  4  5  17  18  19  20  21  22  23  24  25 0
 3-21G
 ****
 27  28  29  34  36  39  40  41  42  43  44  45  46 0
 3-21G
 ****


