%nproc=1
%NoSave
%Mem=1900MB
#P OB98/GEN NMR

erre ene a

0 1
  C      354.269     -85.304    -310.508
  O      354.587     -86.017    -309.330
  H      355.189     -84.877    -310.924
  H      353.573     -84.490    -310.286
  H      353.828     -85.977    -311.248
  P      353.359     -86.638    -308.505
  C      353.333     -84.442    -307.108
  O      352.578     -85.409    -307.837
  C      352.751     -84.289    -305.706
  O      351.474     -83.605    -305.778
  C      352.462     -85.614    -305.004
  O      353.625     -86.207    -304.453
  C      351.483     -85.158    -303.931
  O      352.160     -84.657    -302.773
  C      350.692     -84.046    -304.648
  N      349.359     -84.492    -305.045
  C      348.524     -83.503    -305.564
  O      348.864     -82.327    -305.692
  N      347.259     -83.909    -305.892
  C      346.746     -85.159    -305.716
  O      345.583     -85.443    -305.980
  C      347.666     -86.157    -305.143
  C      348.916     -85.783    -304.834
  O      354.079     -87.355    -307.265
  O      352.499     -87.585    -309.274
  H      354.059     -88.322    -307.388
  H      352.519     -85.439    -302.309
  H      346.638     -83.208    -306.279
  H      347.289     -87.160    -304.988
  H      349.609     -86.494    -304.408
  H      350.581     -83.174    -303.985
  H      350.853     -85.982    -303.606
  H      351.949     -86.299    -305.690
  H      353.438     -83.678    -305.107
  H      353.284     -83.476    -307.624
  H      354.376     -84.764    -307.066
  P      353.711     -87.812    -304.449
  C      352.273     -88.302    -302.297
  O      352.380     -88.317    -303.719
  O      354.883     -88.038    -303.378
  O      353.967     -88.390    -305.806
  H      354.932     -87.307    -302.735
  H      351.313     -88.676    -302.008
  H      352.387     -87.299    -301.941
  H      353.038     -88.920    -301.875

 6  7  8  9  10  11  12  13  14  15  16  27  31  32  33  34  35 0
 6-311+G(2d,p)
 ****
 36  37 0
 6-311+G(2d,p)
 ****
 1  2  3  4  5  17  18  19  20  21  22  23  24  25 0
 3-21G
 ****
 26  28  29  30  38  39  40  41  42  43  44  45 0
 3-21G
 ****


