%nproc=1
%NoSave
%Mem=1900MB
#P OB98/GEN NMR

erre ene a

0 1
  C     -834.458     -52.303    -268.367
  O     -833.590     -52.418    -269.468
  P     -832.004     -52.284    -269.199
  C     -831.418     -50.427    -270.940
  O     -831.612     -50.771    -269.560
  C     -831.131     -48.935    -271.067
  O     -832.321     -48.159    -270.859
  C     -830.124     -48.405    -270.065
  O     -828.767     -48.657    -270.448
  C     -830.399     -46.894    -270.128
  O     -829.772     -46.323    -271.281
  C     -831.943     -46.882    -270.282
  N     -833.333     -43.425    -266.870
  C     -832.804     -43.246    -268.131
  N     -832.558     -41.978    -268.521
  N     -832.553     -44.235    -268.953
  C     -832.832     -45.451    -268.443
  C     -833.370     -45.748    -267.199
  C     -833.656     -44.653    -266.293
  O     -834.067     -44.739    -265.150
  N     -833.531     -47.101    -267.030
  C     -833.094     -47.618    -268.162
  N     -832.628     -46.681    -269.029
  O     -831.350     -53.128    -270.391
  O     -831.576     -52.755    -267.845
  H     -830.132     -46.811    -272.058
  H     -830.428     -53.336    -270.165
  H     -833.529     -42.632    -266.275
  H     -833.108     -48.682    -268.392
  H     -832.258     -46.101    -270.978
  H     -830.032     -46.362    -269.248
  H     -832.679     -41.181    -267.918
  H     -830.323     -48.769    -269.050
  H     -832.110     -41.828    -269.415
  H     -830.782     -48.742    -272.098
  H     -832.297     -50.683    -271.508
  H     -830.568     -51.009    -271.329
  P     -827.623     -48.037    -269.526
  C     -827.060     -46.316    -271.396
  O     -827.418     -46.525    -270.044
  O     -826.310     -48.801    -270.033
  O     -827.846     -48.211    -268.070
  H     -825.638     -48.837    -269.314
  H     -827.211     -45.257    -271.636
  H     -827.650     -46.932    -272.068
  H     -826.001     -46.542    -271.532
  H     -835.470     -52.412    -268.698
  H     -834.333     -51.342    -267.913
  H     -834.231     -53.067    -267.653

 3  4  5  6  7  8  9  10  11  12  23  26  30  31 0
 6-311+G(2d,p)
 ****
 33  35  36  37  38 0
 6-311+G(2d,p)
 ****
 1  2  13  14  15  16  17  18  19  20  21  22  24  25 0
 3-21G
 ****
 27  28  29  32  34  39  40  41  42  43  44  45  46  47  48  49 0
 3-21G
 ****


