%nproc=1
%NoSave
%Mem=1900MB
#P OB98/GEN NMR

erre ene a

0 1
  C      751.934    -508.784    -412.282
  O      753.274    -509.128    -411.958
  H      751.715    -509.105    -413.298
  H      751.842    -507.689    -412.230
  H      751.232    -509.251    -411.591
  P      753.692    -509.109    -410.416
  C      754.739    -510.948    -408.904
  O      754.690    -510.360    -410.190
  C      755.268    -512.380    -408.990
  O      754.211    -513.252    -409.465
  C      756.456    -512.550    -409.947
  O      757.379    -513.513    -409.394
  C      755.827    -513.145    -411.180
  O      756.767    -513.861    -411.985
  C      754.755    -514.022    -410.541
  N      753.836    -517.190    -414.324
  C      754.863    -517.157    -413.417
  N      755.850    -518.081    -413.564
  N      754.938    -516.302    -412.430
  C      753.895    -515.442    -412.389
  C      752.818    -515.364    -413.235
  C      752.749    -516.317    -414.327
  O      751.872    -516.384    -415.203
  N      751.986    -514.317    -412.894
  C      752.584    -513.752    -411.842
  N      753.741    -514.412    -411.520
  O      752.343    -509.561    -409.670
  O      754.192    -507.799    -409.902
  H      757.105    -514.598    -411.443
  H      751.841    -508.780    -409.389
  H      753.846    -517.868    -415.085
  H      752.233    -512.875    -411.336
  H      755.169    -514.957    -410.125
  H      755.390    -512.360    -411.787
  H      755.855    -518.801    -414.272
  H      756.998    -511.613    -410.153
  H      756.591    -518.098    -412.876
  H      755.534    -512.714    -407.974
  H      753.717    -510.970    -408.482
  H      755.378    -510.335    -408.245
  P      758.780    -512.994    -408.800
  C      759.833    -513.325    -406.446
  O      759.211    -513.922    -407.586
  O      758.379    -511.595    -408.095
  O      759.819    -512.760    -409.837
  H      759.100    -510.975    -408.179
  H      760.058    -514.083    -405.725
  H      759.169    -512.607    -406.013
  H      760.737    -512.839    -406.747

 6  7  8  9  10  11  12  13  14  15  26  29  33  34 0
 6-311+G(2d,p)
 ****
 36  38  39  40  41 0
 6-311+G(2d,p)
 ****
 1  2  3  4  5  16  17  18  19  20  21  22  23  24  25 0
 3-21G
 ****
 27  28  30  31  32  35  37  42  43  44  45  46  47 0
 3-21G
 ****
 48  49 0
 3-21G
 ****


