%nproc=1
%NoSave
%Mem=1900MB
#P OB98/GEN NMR

erre ene a

0 1
  C     -193.587    -143.606    -225.991
  O     -194.897    -143.069    -226.000
  P     -196.154    -144.010    -225.688
  C     -197.073    -143.875    -228.120
  O     -196.588    -144.688    -227.074
  C     -197.371    -144.704    -229.377
  O     -197.903    -143.809    -230.384
  C     -196.150    -145.367    -230.010
  O     -196.599    -146.408    -230.877
  C     -195.576    -144.232    -230.831
  O     -194.706    -144.701    -231.862
  C     -196.845    -143.493    -231.322
  N     -196.634    -142.033    -231.383
  C     -196.629    -141.455    -232.649
  O     -196.864    -142.084    -233.679
  N     -196.258    -140.136    -232.699
  C     -195.856    -139.386    -231.631
  O     -195.246    -138.329    -231.728
  C     -196.114    -139.982    -230.310
  C     -196.462    -141.269    -230.244
  O     -197.322    -142.954    -225.396
  O     -195.963    -144.957    -224.551
  H     -194.333    -143.899    -232.303
  H     -197.420    -142.813    -224.434
  H     -196.113    -139.756    -233.630
  H     -195.952    -139.365    -229.435
  H     -196.606    -141.748    -229.279
  H     -197.147    -143.834    -232.320
  H     -194.985    -143.578    -230.178
  H     -195.425    -145.755    -229.288
  H     -198.138    -145.450    -229.147
  H     -196.339    -143.090    -228.338
  H     -197.991    -143.360    -227.807
  P     -195.486    -147.305    -231.612
  C     -196.082    -146.113    -233.809
  O     -195.046    -146.488    -232.922
  O     -195.844    -148.737    -231.833
  O     -194.211    -147.150    -230.654
  H     -193.576    -147.872    -230.830
  H     -195.787    -145.193    -234.322
  H     -197.022    -145.937    -233.278
  H     -196.226    -146.904    -234.550
  H     -192.883    -142.833    -226.220
  H     -193.515    -144.383    -226.724
  H     -193.373    -144.008    -225.023

 3  4  5  6  7  8  9  10  11  12  13  23  28  29  30  31  32 0
 6-311+G(2d,p)
 ****
 33  34 0
 6-311+G(2d,p)
 ****
 1  2  14  15  16  17  18  19  20  21  22  24  25  26  27 0
 3-21G
 ****
 35  36  37  38  39  40  41  42  43  44  45 0
 3-21G
 ****


