%nproc=1
%NoSave
%Mem=1900MB
#P OB98/GEN NMR

erre ene a

0 1
  C      104.730     -43.907     -89.270
  O      104.779     -43.757     -87.866
  H      104.364     -42.984     -89.725
  H      105.740     -44.104     -89.639
  H      104.084     -44.744     -89.550
  P      103.381     -43.761     -87.079
  C      104.143     -42.134     -85.205
  O      103.728     -43.450     -85.540
  C      105.353     -42.176     -84.274
  O      106.559     -42.251     -85.086
  C      105.483     -40.954     -83.352
  O      105.947     -41.399     -82.074
  C      106.573     -40.132     -84.015
  O      107.257     -39.285     -83.099
  C      107.451     -41.228     -84.611
  N      111.662     -38.561     -85.610
  C      111.225     -39.169     -84.488
  N      110.110     -39.908     -84.321
  C      109.455     -40.049     -85.486
  C      109.781     -39.496     -86.712
  C      110.939     -38.700     -86.747
  N      111.356     -38.021     -87.868
  N      108.828     -39.824     -87.657
  C      107.932     -40.539     -87.005
  N      108.267     -40.700     -85.690
  O      102.997     -45.316     -87.070
  O      102.303     -42.923     -87.676
  H      107.772     -39.839     -82.480
  H      102.503     -45.536     -87.880
  H      111.844     -39.035     -83.605
  H      107.018     -40.933     -87.425
  H      108.129     -41.674     -83.873
  H      106.134     -39.507     -84.801
  H      104.550     -40.391     -83.230
  H      105.306     -43.100     -83.686
  H      103.321     -41.620     -84.696
  H      112.136     -37.390     -87.770
  H      110.770     -38.026     -88.689
  H      104.386     -41.587     -86.122
  P      105.250     -40.770     -80.774
  C      107.484     -40.554     -79.454
  O      106.166     -41.089     -79.500
  O      103.971     -41.708     -80.555
  O      104.861     -39.336     -80.931
  H      103.235     -41.192     -80.180
  H      107.960     -40.857     -78.545
  H      107.437     -39.486     -79.493
  H      108.046     -40.917     -80.289

 6  7  8  9  10  11  12  13  14  15  25  28  32  33  34  35 0
 6-311+G(2d,p)
 ****
 36  39  40 0
 6-311+G(2d,p)
 ****
 1  2  3  4  5  16  17  18  19  20  21  22  23  24 0
 3-21G
 ****
 26  27  29  30  31  37  38  41  42  43  44  45  46  47 0
 3-21G
 ****
 48 0
 3-21G
 ****


