%nproc=1
%NoSave
%Mem=1900MB
#P OB98/GEN NMR

erre ene a

0 1
  C      -29.891      71.530     -98.206
  O      -28.989      72.609     -98.105
  H      -29.614      70.928     -99.077
  H      -30.912      71.891     -98.346
  H      -29.834      70.901     -97.314
  P      -29.273      73.764     -97.025
  C      -26.919      74.131     -96.074
  O      -27.909      74.623     -96.970
  C      -26.073      73.035     -96.721
  O      -25.422      73.558     -97.909
  C      -24.979      72.474     -95.805
  O      -24.992      71.046     -95.867
  C      -23.691      73.018     -96.406
  O      -22.562      72.216     -96.074
  C      -24.064      73.080     -97.891
  N      -23.178      73.942     -98.665
  C      -21.935      73.406     -99.016
  O      -21.621      72.274     -98.643
  N      -21.064      74.174     -99.745
  C      -21.381      75.391    -100.052
  N      -20.469      76.104    -100.768
  C      -22.663      76.015     -99.662
  C      -23.507      75.240     -98.983
  O      -29.760      73.275     -95.702
  O      -30.293      74.756     -97.756
  H      -21.750      72.690     -96.358
  H      -30.760      75.304     -97.079
  H      -22.876      77.038     -99.932
  H      -24.475      75.611     -98.663
  H      -24.048      72.077     -98.339
  H      -23.510      74.031     -96.025
  H      -25.091      72.774     -94.766
  H      -26.746      72.241     -97.068
  H      -19.605      75.640    -101.016
  H      -27.417      73.748     -95.177
  H      -20.607      77.062    -101.056
  H      -26.266      74.966     -95.794
  P      -25.416      70.284     -94.519
  C      -25.505      67.923     -95.581
  O      -24.891      68.770     -94.621
  O      -27.005      70.150     -94.661
  O      -25.029      71.010     -93.273
  H      -27.449      70.835     -94.128
  H      -25.058      66.952     -95.537
  H      -25.368      68.335     -96.559
  H      -26.551      67.844     -95.370

 6  7  8  9  10  11  12  13  14  15  16  26  30  31  32  33  35 0
 6-311+G(2d,p)
 ****
 37  38 0
 6-311+G(2d,p)
 ****
 1  2  3  4  5  17  18  19  20  21  22  23  24  25 0
 3-21G
 ****
 27  28  29  34  36  39  40  41  42  43  44  45  46 0
 3-21G
 ****


