%nproc=1
%NoSave
%Mem=1900MB
#P OB98/GEN NMR

erre ene a

0 1
  C      142.387    -334.471     265.019
  O      142.489    -333.604     263.905
  H      141.422    -334.984     264.994
  H      143.182    -335.217     264.957
  H      142.490    -333.916     265.955
  P      141.618    -332.258     263.939
  C      142.087    -329.770     263.362
  O      142.518    -331.118     263.252
  C      143.276    -328.815     263.272
  O      144.097    -328.991     264.464
  C      144.175    -329.039     262.045
  O      144.607    -327.763     261.563
  C      145.372    -329.779     262.624
  O      146.552    -329.599     261.850
  C      145.455    -329.172     264.020
  N      150.114    -330.298     265.715
  C      149.634    -329.231     265.045
  N      148.359    -328.984     264.677
  C      147.535    -329.947     265.130
  C      147.881    -331.090     265.835
  C      149.249    -331.262     266.110
  N      149.759    -332.379     266.733
  N      146.759    -331.863     266.069
  C      145.765    -331.211     265.500
  N      146.187    -330.049     264.917
  O      141.646    -331.871     265.496
  O      140.225    -332.379     263.419
  H      146.430    -330.035     260.982
  H      140.913    -332.316     265.957
  H      150.363    -328.482     264.756
  H      144.739    -331.548     265.451
  H      145.955    -328.195     264.030
  H      145.151    -330.852     262.670
  H      143.690    -329.595     261.238
  H      142.900    -327.786     263.294
  H      141.593    -329.633     264.330
  H      150.762    -332.463     266.795
  H      149.143    -333.149     266.937
  H      141.366    -329.552     262.567
  P      143.794    -327.123     260.338
  C      143.347    -324.679     259.556
  O      144.249    -325.598     260.164
  O      142.303    -327.003     260.912
  O      143.841    -327.944     259.087
  H      141.656    -327.128     260.193
  H      143.799    -323.710     259.515
  H      142.447    -324.629     260.132
  H      143.118    -325.008     258.564

 6  7  8  9  10  11  12  13  14  15  25  28  32  33  34  35 0
 6-311+G(2d,p)
 ****
 36  39  40 0
 6-311+G(2d,p)
 ****
 1  2  3  4  5  16  17  18  19  20  21  22  23  24 0
 3-21G
 ****
 26  27  29  30  31  37  38  41  42  43  44  45  46  47 0
 3-21G
 ****
 48 0
 3-21G
 ****


