%nproc=1
%NoSave
%Mem=1900MB
#P OB98/GEN NMR

erre ene a

0 1
  C      448.020     436.135    -328.718
  O      447.793     434.763    -328.488
  P      448.221     434.104    -327.090
  C      445.969     434.462    -325.885
  O      446.893     433.498    -326.409
  C      444.551     434.115    -326.323
  O      444.397     434.310    -327.743
  C      444.148     432.669    -326.064
  O      443.846     432.465    -324.693
  C      442.957     432.520    -327.002
  O      441.769     433.053    -326.403
  C      443.387     433.379    -328.203
  N      442.104     430.204    -331.986
  C      441.401     430.707    -330.943
  N      441.819     431.521    -329.953
  C      443.129     431.789    -330.094
  C      443.998     431.320    -331.078
  C      443.429     430.504    -332.080
  N      444.122     430.040    -333.169
  N      445.271     431.791    -330.862
  C      445.190     432.521    -329.766
  N      443.902     432.593    -329.304
  O      449.051     434.970    -326.196
  O      449.026     432.791    -327.519
  H      441.615     432.572    -325.569
  H      449.941     432.843    -327.178
  H      440.357     430.421    -330.918
  H      446.023     433.021    -329.274
  H      442.561     433.979    -328.589
  H      442.751     431.474    -327.257
  H      444.946     431.995    -326.390
  H      443.856     434.800    -325.815
  H      446.244     435.450    -326.255
  H      443.594     429.591    -333.899
  H      445.006     430.498    -333.416
  H      446.037     434.460    -324.787
  P      444.000     431.004    -324.062
  C      446.142     431.577    -322.770
  O      444.785     431.184    -322.673
  O      444.543     429.953    -324.969
  O      442.514     430.648    -323.573
  H      442.378     429.684    -323.638
  H      446.770     430.719    -323.040
  H      446.477     431.958    -321.798
  H      446.267     432.371    -323.518
  H      447.673     436.395    -329.696
  H      449.068     436.340    -328.645
  H      447.492     436.711    -327.987

 3  4  5  6  7  8  9  10  11  12  22  25  29  30  31  32 0
 6-311+G(2d,p)
 ****
 33  36  37 0
 6-311+G(2d,p)
 ****
 1  2  13  14  15  16  17  18  19  20  21  23  24  26 0
 3-21G
 ****
 27  28  34  35  38  39  40  41  42  43  44  45  46  47  48 0
 3-21G
 ****


