%nproc=1
%NoSave
%Mem=1900MB
#P OB98/GEN NMR

erre ene a

0 1
  C       -5.613     427.836    -189.065
  O       -5.370     427.801    -190.457
  H       -6.027     426.872    -188.757
  H       -6.337     428.619    -188.819
  H       -4.679     428.006    -188.520
  P       -4.830     429.128    -191.172
  C       -2.492     428.030    -191.025
  O       -3.264     429.214    -190.849
  C       -1.041     428.380    -191.352
  O       -0.972     429.160    -192.561
  C       -0.343     429.211    -190.278
  O       -0.001     428.406    -189.169
  C        0.829     429.758    -191.075
  O        1.862     428.771    -191.218
  C        0.159     430.053    -192.439
  N       -0.255     431.443    -192.602
  C        0.387     432.161    -193.619
  O        1.255     431.623    -194.308
  N        0.038     433.475    -193.809
  C       -0.894     434.015    -193.088
  N       -1.202     435.313    -193.333
  C       -1.616     433.282    -192.031
  C       -1.242     432.017    -191.837
  O       -5.592     430.387    -190.887
  O       -4.858     428.763    -192.730
  H        2.274     428.686    -190.335
  H       -5.695     429.062    -193.136
  H       -2.395     433.764    -191.462
  H       -1.723     431.408    -191.078
  H        0.844     429.807    -193.263
  H        1.284     430.628    -190.596
  H       -0.982     430.051    -189.981
  H       -0.502     427.440    -191.535
  H       -0.686     435.771    -194.082
  H       -2.941     427.474    -191.855
  H       -2.007     435.783    -192.950
  H       -2.535     427.403    -190.127
  P        0.001     428.996    -187.678
  C       -2.390     428.218    -187.143
  O       -1.533     429.332    -187.338
  O        0.957     430.114    -187.439
  O        0.281     427.709    -186.766
  H        1.242     427.468    -186.797
  H       -3.379     428.563    -186.924
  H       -2.029     427.629    -186.326
  H       -2.408     427.622    -188.032

 6  7  8  9  10  11  12  13  14  15  16  26  30  31  32  33  35 0
 6-311+G(2d,p)
 ****
 37  38 0
 6-311+G(2d,p)
 ****
 1  2  3  4  5  17  18  19  20  21  22  23  24  25 0
 3-21G
 ****
 27  28  29  34  36  39  40  41  42  43  44  45  46 0
 3-21G
 ****


