%nproc=1
%NoSave
%Mem=1900MB
#P OB98/GEN NMR

erre ene a

0 1
  C     -114.875     -87.806       9.585
  O     -114.507     -88.048       8.239
  H     -115.863     -88.239       9.759
  H     -114.924     -86.730       9.774
  H     -114.156     -88.275      10.261
  P     -113.065     -87.505       7.784
  C     -110.684     -88.364       8.330
  O     -112.037     -88.255       8.759
  C     -109.765     -88.630       9.521
  O     -109.801     -87.526      10.443
  C     -110.134     -89.863      10.337
  O     -109.644     -91.042       9.717
  C     -109.407     -89.568      11.640
  O     -108.010     -89.893      11.502
  C     -109.578     -88.044      11.782
  N     -110.900     -85.206      15.851
  C     -109.693     -85.548      15.348
  N     -109.417     -86.339      14.291
  C     -110.548     -86.800      13.731
  C     -111.851     -86.534      14.132
  C     -112.009     -85.689      15.242
  N     -113.243     -85.333      15.744
  N     -112.756     -87.182      13.317
  C     -112.014     -87.783      12.408
  N     -110.671     -87.611      12.637
  O     -112.932     -86.024       7.692
  O     -112.865     -88.294       6.404
  H     -107.572     -89.669      12.346
  H     -113.209     -89.201       6.476
  H     -108.835     -85.128      15.864
  H     -112.400     -88.336      11.559
  H     -108.672     -87.568      12.171
  H     -109.792     -90.160      12.473
  H     -111.211     -89.909      10.529
  H     -108.738     -88.703       9.141
  H     -110.373     -87.451       7.815
  H     -113.264     -84.866      16.639
  H     -114.061     -85.791      15.368
  H     -110.632     -89.197       7.620
  P     -110.282     -92.472      10.068
  C     -112.609     -93.544       9.835
  O     -111.869     -92.327       9.870
  O     -109.872     -93.040      11.383
  O     -109.849     -93.415       8.854
  H     -109.634     -94.311       9.176
  H     -113.648     -93.326       9.700
  H     -112.472     -94.071      10.756
  H     -112.263     -94.149       9.023

 6  7  8  9  10  11  12  13  14  15  25  28  32  33  34  35 0
 6-311+G(2d,p)
 ****
 36  39  40 0
 6-311+G(2d,p)
 ****
 1  2  3  4  5  16  17  18  19  20  21  22  23  24 0
 3-21G
 ****
 26  27  29  30  31  37  38  41  42  43  44  45  46  47 0
 3-21G
 ****
 48 0
 3-21G
 ****


