%nproc=1
%NoSave
%Mem=1900MB
#P OB98/GEN NMR

erre ene a

0 1
  C     -211.968    -389.982     162.273
  O     -210.778    -389.255     161.959
  P     -210.908    -388.086     160.864
  C     -211.508    -385.546     160.962
  O     -211.037    -386.697     161.658
  C     -211.584    -384.337     161.888
  O     -212.615    -384.512     162.885
  C     -210.310    -384.077     162.687
  O     -209.327    -383.411     161.902
  C     -210.829    -383.169     163.788
  O     -210.905    -381.814     163.315
  C     -212.245    -383.731     164.042
  N     -212.417    -383.852     169.114
  C     -212.338    -382.767     168.255
  N     -212.335    -381.541     168.832
  N     -212.274    -382.878     166.950
  C     -212.316    -384.163     166.517
  C     -212.393    -385.320     167.266
  C     -212.436    -385.184     168.711
  O     -212.476    -386.104     169.515
  N     -212.427    -386.436     166.468
  C     -212.401    -385.954     165.231
  N     -212.322    -384.583     165.213
  O     -212.384    -388.309     160.275
  O     -209.872    -388.135     159.796
  H     -211.124    -381.247     164.091
  H     -212.432    -387.971     159.364
  H     -212.457    -383.705     170.110
  H     -212.438    -386.555     164.335
  H     -212.982    -382.929     164.154
  H     -210.181    -383.158     164.673
  H     -212.454    -381.388     169.822
  H     -209.923    -385.008     163.125
  H     -212.312    -380.741     168.208
  H     -211.833    -383.453     161.282
  H     -212.498    -385.752     160.545
  H     -210.843    -385.351     160.110
  P     -208.001    -384.237     161.524
  C     -207.675    -386.806     161.332
  O     -208.514    -385.696     161.090
  O     -207.307    -384.475     162.946
  O     -207.095    -383.541     160.559
  H     -206.336    -384.547     162.838
  H     -207.219    -386.754     162.325
  H     -206.890    -386.845     160.565
  H     -208.275    -387.718     161.272
  H     -211.747    -390.726     163.010
  H     -212.341    -390.455     161.389
  H     -212.707    -389.309     162.656

 3  4  5  6  7  8  9  10  11  12  23  26  30  31  33  0
 6-311+G(2d,p)
 ****
 35  36  37  38 0
 6-311+G(2d,p)
 ****
 1  2  13  14  15  16  17  18  19  20  21  22  24  25  27  28  29 0
 3-21G
 ****
 32  34  39  40  41  42  43  44  45  46  47  48  49 0
 3-21G
 ****


