%nproc=1
%NoSave
%Mem=1900MB
#P OB98/GEN NMR

erre ene a

0 1
  C     -241.297      47.742     -96.173
  O     -242.632      47.279     -96.141
  H     -241.247      48.770     -95.803
  H     -240.687      47.105     -95.527
  H     -240.904      47.693     -97.192
  P     -243.692      48.104     -97.020
  C     -243.792      47.156     -99.426
  O     -244.296      47.078     -98.100
  C     -244.005      45.825    -100.146
  O     -243.142      44.834     -99.529
  C     -245.451      45.303    -100.087
  O     -245.910      44.944    -101.397
  C     -245.358      44.045     -99.244
  O     -246.269      43.033     -99.654
  C     -243.905      43.623     -99.434
  N     -243.160      38.820     -97.893
  C     -243.281      39.352     -99.129
  N     -243.380      40.651     -99.476
  C     -243.312      41.440     -98.389
  C     -243.167      41.044     -97.070
  C     -243.110      39.660     -96.833
  N     -243.043      39.114     -95.570
  N     -243.145      42.141     -96.227
  C     -243.318      43.179     -97.021
  N     -243.441      42.803     -98.335
  O     -242.763      49.073     -97.896
  O     -244.691      48.874     -96.226
  H     -246.282      43.029    -100.628
  H     -242.986      50.000     -97.682
  H     -243.308      38.639     -99.949
  H     -243.409      44.209     -96.698
  H     -243.763      43.062    -100.366
  H     -245.567      44.299     -98.198
  H     -246.142      46.029     -99.648
  H     -243.679      45.933    -101.189
  H     -242.719      47.379     -99.399
  H     -243.125      38.114     -95.486
  H     -243.119      39.733     -94.773
  H     -244.307      47.964     -99.957
  P     -246.478      46.145    -102.305
  C     -244.558      45.974    -104.048
  O     -245.959      45.919    -103.809
  O     -245.647      47.413    -101.792
  O     -247.948      46.363    -102.162
  H     -246.258      48.114    -101.496
  H     -244.367      45.806    -105.087
  H     -244.067      45.220    -103.469
  H     -244.186      46.937    -103.768

 6  7  8  9  10  11  12  13  14  15  25  28  32  33  34  35 0
 6-311+G(2d,p)
 ****
 36  39  40 0
 6-311+G(2d,p)
 ****
 1  2  3  4  5  16  17  18  19  20  21  22  23  24 0
 3-21G
 ****
 26  27  29  30  31  37  38  41  42  43  44  45  46  47  48 0
 3-21G
 ****


