%nproc=1
%NoSave
%Mem=1900MB
#P OB98/GEN NMR

erre ene a

0 1
  C      -35.764      32.767     -32.743
  O      -36.005      32.046     -33.935
  H      -35.077      33.587     -32.964
  H      -35.308      32.121     -31.989
  H      -36.697      33.188     -32.357
  P      -36.955      30.759     -33.870
  C      -34.988      29.222     -33.211
  O      -36.013      29.493     -34.158
  C      -33.683      29.888     -33.640
  O      -32.660      29.673     -32.649
  C      -33.117      29.369     -34.961
  O      -33.767      29.985     -36.059
  C      -31.665      29.795     -34.827
  O      -31.550      31.208     -35.088
  C      -31.389      29.513     -33.339
  N      -27.458      26.347     -33.858
  C      -27.668      27.595     -34.410
  N      -26.707      28.052     -35.242
  N      -28.728      28.325     -34.177
  C      -29.635      27.713     -33.383
  C      -29.550      26.473     -32.791
  C      -28.341      25.704     -33.004
  O      -28.105      24.602     -32.513
  N      -30.707      26.149     -32.131
  C      -31.471      27.214     -32.278
  N      -30.870      28.190     -33.039
  O      -38.186      30.807     -34.724
  O      -37.307      30.606     -32.317
  H      -30.602      31.431     -35.047
  H      -38.132      31.076     -32.095
  H      -26.625      25.828     -34.080
  H      -32.460      27.334     -31.854
  H      -30.687      30.234     -32.907
  H      -31.006      29.283     -35.529
  H      -25.947      27.480     -35.576
  H      -33.163      28.276     -35.015
  H      -26.872      28.940     -35.701
  H      -33.860      30.970     -33.689
  H      -34.864      28.136     -33.162
  H      -35.277      29.586     -32.220
  P      -34.706      29.146     -37.058
  C      -32.945      28.280     -38.742
  O      -33.977      29.215     -38.484
  O      -36.136      29.562     -37.069
  O      -34.469      27.624     -36.638
  H      -35.047      27.336     -35.888
  H      -32.553      28.443     -39.724
  H      -33.338      27.287     -38.676
  H      -32.164      28.403     -38.021

 6  7  8  9  10  11  12  13  14  15  26  29  33  34 0
 6-311+G(2d,p)
 ****
 36  38  39  40  41 0
 6-311+G(2d,p)
 ****
 1  2  3  4  5  16  17  18  19  20  21  22  23  24  25 0
 3-21G
 ****
 27  28  30  31  32  35  37  42  43  44  45  46  47 0
 3-21G
 ****
 48  49 0
 3-21G
 ****


