%nproc=1
%NoSave
%Mem=1900MB
#P OB98/GEN NMR

erre ene a

0 1
  C       13.942     -32.158      41.463
  O       13.463     -30.840      41.735
  P       12.554     -30.672      43.047
  C       11.983     -28.362      42.015
  O       11.532     -29.463      42.790
  C       10.847     -27.805      41.154
  O       10.490     -28.691      40.078
  C        9.564     -27.558      41.935
  O        9.658     -26.339      42.652
  C        8.526     -27.518      40.821
  O        8.456     -26.211      40.216
  C        9.071     -28.546      39.816
  N        5.703     -31.600      37.577
  C        5.992     -30.271      37.333
  N        5.304     -29.680      36.334
  N        6.878     -29.587      38.007
  C        7.492     -30.306      38.975
  C        7.311     -31.633      39.292
  C        6.325     -32.379      38.541
  O        6.050     -33.562      38.704
  N        8.161     -32.029      40.295
  C        8.759     -30.911      40.665
  N        8.436     -29.851      39.853
  O       13.577     -30.093      44.133
  O       11.931     -31.949      43.505
  H        8.008     -26.284      39.354
  H       13.758     -30.770      44.811
  H        5.005     -32.077      37.032
  H        9.449     -30.821      41.490
  H        8.970     -28.189      38.784
  H        7.522     -27.739      41.192
  H        4.609     -30.148      35.773
  H        9.363     -28.401      42.607
  H        5.506     -28.708      36.135
  H       11.200     -26.863      40.714
  H       12.813     -28.668      41.377
  H       12.373     -27.593      42.691
  P        9.808     -26.418      44.246
  C       10.905     -24.069      44.346
  O        9.868     -24.918      44.797
  O       11.301     -26.963      44.443
  O        8.817     -27.310      44.917
  H       11.307     -27.655      45.131
  H       10.545     -23.037      44.359
  H       11.222     -24.322      43.331
  H       11.759     -24.155      45.022
  H       14.532     -32.146      40.570
  H       13.111     -32.820      41.333
  H       14.542     -32.496      42.282

 3  4  5  6  7  8  9  10  11  12  23  26  30  31 0
 6-311+G(2d,p)
 ****
 33  35  36  37  38 0
 6-311+G(2d,p)
 ****
 1  2  13  14  15  16  17  18  19  20  21  22  24  25 0
 3-21G
 ****
 27  28  29  32  34  39  40  41  42  43  44  45  46  47  48  49 0
 3-21G
 ****


