%nproc=1
%NoSave
%Mem=1900MB
#P OB98/GEN NMR

erre ene a

0 1
  C      -45.350     130.298    -280.046
  O      -45.294     130.786    -278.720
  P      -44.936     129.820    -277.497
  C      -46.146     128.036    -276.110
  O      -46.131     128.764    -277.331
  C      -47.550     127.986    -275.510
  O      -47.907     129.305    -275.016
  C      -48.640     127.541    -276.492
  O      -49.563     126.729    -275.761
  C      -49.288     128.850    -276.901
  O      -50.607     128.669    -277.399
  C      -49.186     129.642    -275.592
  N      -49.316     131.074    -275.796
  C      -50.323     131.725    -275.078
  O      -51.132     131.073    -274.418
  N      -50.392     133.096    -275.141
  C      -49.649     133.732    -275.993
  N      -49.700     135.093    -275.976
  C      -48.753     133.050    -276.946
  C      -48.603     131.739    -276.765
  O      -44.545     130.515    -276.235
  O      -43.732     128.918    -278.047
  H      -42.982     128.968    -277.421
  H      -50.926     129.522    -277.762
  H      -48.252     133.611    -277.720
  H      -47.945     131.151    -277.396
  H      -49.956     129.313    -274.883
  H      -48.691     129.327    -277.686
  H      -48.242     126.968    -277.335
  H      -47.526     127.314    -274.644
  H      -50.296     135.529    -275.282
  H      -45.475     128.534    -275.410
  H      -48.950     135.667    -276.360
  H      -45.764     127.022    -276.278
  P      -49.974     125.300    -276.374
  C      -51.847     124.443    -277.953
  O      -51.101     125.547    -277.486
  O      -50.828     124.667    -275.169
  O      -48.852     124.382    -276.736
  H      -50.799     123.695    -275.237
  H      -52.514     124.785    -278.749
  H      -52.454     124.025    -277.145
  H      -51.185     123.672    -278.357
  H      -45.604     131.098    -280.710
  H      -46.092     129.530    -280.112
  H      -44.396     129.897    -280.319

 3  4  5  6  7  8  9  10  11  12  13  24  27  28  29  30  32 0
 6-311+G(2d,p)
 ****
 34  35 0
 6-311+G(2d,p)
 ****
 1  2  14  15  16  17  18  19  20  21  22  23  25  26 0
 3-21G
 ****
 31  33  36  37  38  39  40  41  42  43  44  45  46 0
 3-21G
 ****


