%nproc=1
%NoSave
%Mem=1900MB
#P OB98/GEN NMR

erre ene a

0 1
  C     -165.016     114.652    -172.501
  O     -164.509     115.804    -171.815
  P     -165.311     116.328    -170.531
  C     -165.755     118.893    -170.473
  O     -164.847     117.832    -170.216
  C     -165.009     120.227    -170.566
  O     -164.431     120.605    -169.300
  C     -163.849     120.213    -171.550
  O     -164.294     120.412    -172.883
  C     -163.046     121.413    -171.077
  O     -163.640     122.627    -171.577
  C     -163.208     121.333    -169.555
  N     -158.436     121.833    -167.765
  C     -159.247     122.692    -168.420
  N     -160.497     122.480    -168.880
  C     -160.905     121.235    -168.590
  C     -160.190     120.249    -167.930
  C     -158.895     120.587    -167.506
  N     -158.074     119.708    -166.836
  N     -160.932     119.091    -167.826
  C     -162.082     119.379    -168.401
  N     -162.111     120.658    -168.885
  O     -164.663     115.487    -169.332
  O     -166.787     116.120    -170.611
  H     -163.202     123.368    -171.120
  H     -165.342     115.292    -168.661
  H     -158.837     123.682    -168.599
  H     -162.919     118.699    -168.486
  H     -163.310     122.323    -169.094
  H     -162.012     121.395    -171.434
  H     -163.255     119.296    -171.443
  H     -165.731     121.000    -170.860
  H     -166.510     118.939    -169.684
  H     -157.168     120.031    -166.539
  H     -158.420     118.785    -166.621
  H     -166.295     118.682    -171.402
  P     -163.941     119.270    -173.953
  C     -163.590     119.974    -176.428
  O     -164.495     119.805    -175.356
  O     -164.945     118.087    -173.561
  O     -162.517     118.827    -173.934
  H     -164.546     117.223    -173.780
  H     -164.157     120.042    -177.360
  H     -162.899     119.130    -176.500
  H     -163.024     120.901    -176.291
  H     -164.381     114.423    -173.331
  H     -166.005     114.854    -172.855
  H     -165.041     113.819    -171.830

 3  4  5  6  7  8  9  10  11  12  22  25  29  30  31  32 0
 6-311+G(2d,p)
 ****
 33  36  37 0
 6-311+G(2d,p)
 ****
 1  2  13  14  15  16  17  18  19  20  21  23  24  26 0
 3-21G
 ****
 27  28  34  35  38  39  40  41  42  43  44  45  46  47  48 0
 3-21G
 ****


