%nproc=1
%NoSave
%Mem=1900MB
#P OB98/GEN NMR

erre ene a

0 1
  C     -161.319    -899.371    -115.913
  O     -161.462    -898.041    -116.373
  P     -162.796    -897.171    -116.254
  C     -161.407    -895.241    -115.146
  O     -162.576    -896.061    -115.127
  C     -161.585    -893.921    -114.359
  O     -162.562    -893.091    -115.026
  C     -162.107    -894.181    -112.958
  O     -161.231    -894.561    -111.914
  C     -162.983    -892.991    -112.640
  O     -162.275    -891.981    -111.911
  C     -163.374    -892.471    -114.031
  N     -168.252    -891.911    -112.534
  C     -167.085    -891.591    -111.849
  N     -167.221    -891.121    -110.601
  N     -165.890    -891.751    -112.364
  C     -165.891    -892.321    -113.598
  C     -166.977    -892.691    -114.360
  C     -168.302    -892.451    -113.826
  O     -169.352    -892.701    -114.393
  N     -166.585    -893.261    -115.556
  C     -165.258    -893.241    -115.494
  N     -164.791    -892.671    -114.316
  O     -164.070    -897.941    -116.190
  O     -162.803    -896.301    -117.637
  H     -162.894    -891.241    -111.766
  H     -163.760    -896.191    -117.874
  H     -169.149    -891.731    -112.123
  H     -164.602    -893.621    -116.269
  H     -163.208    -891.391    -114.103
  H     -163.841    -893.271    -112.007
  H     -168.103    -891.091    -110.113
  H     -162.820    -895.051    -113.034
  H     -166.399    -891.101    -110.007
  H     -160.633    -893.351    -114.367
  H     -161.170    -895.041    -116.194
  H     -160.548    -895.811    -114.738
  P     -161.099    -896.031    -111.232
  C     -158.555    -895.981    -111.134
  O     -159.678    -896.621    -111.653
  O     -162.142    -896.921    -112.066
  O     -161.424    -896.061    -109.769
  H     -162.339    -897.751    -111.586
  H     -157.674    -896.281    -111.715
  H     -158.400    -896.281    -110.098
  H     -158.654    -894.891    -111.191
  H     -160.326    -899.715    -116.118
  H     -162.025    -900.000    -116.415
  H     -161.498    -899.405    -114.859

 3  4  5  6  7  8  9  10  11  12  23  26  30  31 0
 6-311+G(2d,p)
 ****
 33  35  36  37  38 0
 6-311+G(2d,p)
 ****
 1  2  13  14  15  16  17  18  19  20  21  22  24  25 0
 3-21G
 ****
 27  28  29  32  34  39  40  41  42  43  44  45  46  47  48  49 0
 3-21G
 ****


