%nproc=1
%NoSave
%Mem=1900MB
#P OB98/GEN NMR

erre ene a

0 1
  C       13.804     117.358     -30.603
  O       14.383     116.363     -31.459
  P       13.866     114.844     -31.524
  C       14.959     113.906     -29.372
  O       13.752     114.290     -30.020
  C       14.668     113.283     -28.005
  O       14.111     114.275     -27.109
  C       13.635     112.166     -28.008
  O       14.141     110.963     -28.558
  C       13.285     112.078     -26.523
  O       14.223     111.258     -25.812
  C       13.421     113.545     -26.068
  N       12.144     114.164     -25.756
  C       11.841     114.328     -24.401
  O       12.597     113.888     -23.536
  N       10.678     114.977     -24.064
  C        9.843     115.329     -24.991
  N        8.716     115.983     -24.597
  C       10.062     115.049     -26.422
  C       11.222     114.473     -26.730
  O       14.672     113.969     -32.426
  O       12.345     114.936     -32.017
  H       12.098     114.108     -32.469
  H       14.419     110.490     -26.385
  H        9.320     115.324     -27.159
  H       11.471     114.246     -27.763
  H       14.076     113.608     -25.190
  H       12.291     111.651     -26.358
  H       12.751     112.490     -28.570
  H       15.618     112.924     -27.584
  H        8.602     116.168     -23.609
  H       15.576     114.801     -29.228
  H        8.015     116.320     -25.240
  H       15.506     113.208     -30.013
  P       13.166     110.145     -29.537
  C       12.239     108.844     -27.493
  O       11.947     109.590     -28.658
  O       14.011     108.832     -29.897
  O       12.764     110.886     -30.769
  H       13.871     108.600     -30.833
  H       11.411     108.961     -26.787
  H       13.162     109.181     -27.014
  H       12.330     107.787     -27.755
  H       14.317     118.287     -30.738
  H       13.893     117.046     -29.583
  H       12.770     117.483     -30.849

 3  4  5  6  7  8  9  10  11  12  13  24  27  28  29  30  32 0
 6-311+G(2d,p)
 ****
 34  35 0
 6-311+G(2d,p)
 ****
 1  2  14  15  16  17  18  19  20  21  22  23  25  26 0
 3-21G
 ****
 31  33  36  37  38  39  40  41  42  43  44  45  46 0
 3-21G
 ****


