%nproc=1
%NoSave
%Mem=1900MB
#P OB98/GEN NMR

erre ene a

0 1
  C       -4.849     712.101    -250.656
  O       -4.984     713.527    -250.637
  P       -4.214     714.290    -249.455
  C       -2.529     715.906    -250.621
  O       -3.800     715.750    -249.999
  C       -2.482     717.188    -251.444
  O       -3.261     717.097    -252.654
  C       -3.023     718.410    -250.693
  O       -2.035     718.922    -249.811
  C       -3.325     719.372    -251.849
  O       -2.148     720.080    -252.274
  C       -3.794     718.411    -252.965
  N       -7.570     718.418    -256.343
  C       -6.226     718.675    -256.519
  N       -5.827     718.940    -257.779
  N       -5.354     718.651    -255.554
  C       -5.886     718.371    -254.347
  C       -7.201     718.064    -254.048
  C       -8.159     718.080    -255.138
  O       -9.363     717.831    -255.037
  N       -7.360     717.767    -252.715
  C       -6.183     718.007    -252.197
  N       -5.228     718.321    -253.136
  O       -2.819     713.516    -249.349
  O       -4.959     714.276    -248.162
  H       -1.542     719.454    -252.707
  H       -2.790     713.008    -248.522
  H       -8.203     718.439    -257.137
  H       -5.937     717.959    -251.132
  H       -3.376     718.704    -253.946
  H       -4.067     720.113    -251.566
  H       -6.435     718.964    -258.581
  H       -3.934     718.159    -250.169
  H       -4.836     719.136    -257.932
  H       -1.440     717.367    -251.726
  H       -2.319     715.047    -251.255
  H       -1.766     715.918    -249.830
  P       -2.497     719.371    -248.343
  C       -0.865     717.632    -247.309
  O       -1.331     718.969    -247.326
  O       -3.674     718.333    -248.004
  O       -2.976     720.778    -248.249
  H       -4.443     718.805    -247.603
  H        0.194     717.605    -247.009
  H       -0.957     717.147    -248.300
  H       -1.445     717.042    -246.581
  H       -5.401     711.701    -251.481
  H       -5.230     711.694    -249.742
  H       -3.816     711.842    -250.759

 3  4  5  6  7  8  9  10  11  12  23  26  30  31 0
 6-311+G(2d,p)
 ****
 33  35  36  37  38 0
 6-311+G(2d,p)
 ****
 1  2  13  14  15  16  17  18  19  20  21  22  24  25 0
 3-21G
 ****
 27  28  29  32  34  39  40  41  42  43  44  45  46  47  48  49 0
 3-21G
 ****


