%nproc=1
%NoSave
%Mem=1900MB
#P OB98/GEN NMR

erre ene a

0 1
  C     -186.749    -262.991    -332.234
  O     -186.167    -262.345    -331.113
  P     -186.847    -262.558    -329.679
  C     -184.724    -263.553    -328.558
  O     -186.077    -263.760    -328.940
  C     -184.452    -264.157    -327.180
  O     -183.043    -264.020    -326.859
  C     -185.243    -263.488    -326.050
  O     -185.569    -264.472    -325.053
  C     -184.242    -262.535    -325.432
  O     -184.581    -262.220    -324.081
  C     -182.948    -263.339    -325.589
  N     -178.891    -262.076    -322.856
  C     -179.735    -263.161    -322.723
  N     -179.514    -263.969    -321.663
  N     -180.703    -263.433    -323.558
  C     -180.810    -262.533    -324.566
  C     -180.022    -261.428    -324.811
  C     -178.963    -261.135    -323.873
  O     -178.199    -260.177    -323.919
  N     -180.415    -260.777    -325.951
  C     -181.461    -261.455    -326.376
  N     -181.763    -262.507    -325.549
  O     -188.269    -263.193    -330.047
  O     -187.010    -261.311    -328.874
  H     -184.760    -263.066    -323.632
  H     -188.970    -262.524    -329.933
  H     -178.164    -261.906    -322.178
  H     -182.049    -261.218    -327.253
  H     -182.851    -264.102    -324.812
  H     -184.209    -261.602    -326.007
  H     -178.830    -263.777    -320.947
  H     -186.159    -262.982    -326.374
  H     -180.148    -264.745    -321.518
  H     -184.666    -265.233    -327.217
  H     -184.524    -262.482    -328.523
  H     -184.061    -264.004    -329.305
  P     -186.651    -264.022    -323.953
  C     -188.081    -265.988    -324.881
  O     -188.044    -264.650    -324.430
  O     -186.826    -262.455    -324.225
  O     -186.249    -264.317    -322.545
  H     -187.121    -262.003    -323.412
  H     -188.714    -266.573    -324.210
  H     -187.086    -266.442    -324.918
  H     -188.517    -266.012    -325.885
  H     -186.187    -262.755    -333.113
  H     -187.758    -262.656    -332.355
  H     -186.741    -264.050    -332.079

 3  4  5  6  7  8  9  10  11  12  23  26  30  31 0
 6-311+G(2d,p)
 ****
 33  35  36  37  38 0
 6-311+G(2d,p)
 ****
 1  2  13  14  15  16  17  18  19  20  21  22  24  25 0
 3-21G
 ****
 27  28  29  32  34  39  40  41  42  43  44  45  46  47  48  49 0
 3-21G
 ****


