%nproc=1
%NoSave
%Mem=1900MB
#P OB98/GEN NMR

erre ene a

0 1
  C        4.369     -10.990      11.802
  O        4.741      -9.759      12.429
  P        4.759      -9.724      14.034
  C        5.609      -7.976      15.791
  O        5.402      -8.309      14.426
  C        6.505      -6.744      15.899
  O        7.897      -7.109      15.735
  C        6.237      -5.685      14.840
  O        5.044      -4.969      15.114
  C        7.514      -4.861      14.927
  O        7.446      -3.948      16.034
  C        8.577      -5.946      15.205
  N        9.372      -6.281      14.031
  C       10.592      -5.621      13.918
  O       10.983      -4.785      14.730
  N       11.343      -5.940      12.819
  C       10.988      -6.812      11.832
  O       11.708      -7.067      10.875
  C        9.667      -7.441      11.982
  C        8.929      -7.152      13.057
  O        5.908     -10.786      14.352
  O        3.429     -10.026      14.637
  H        6.628     -10.777      13.698
  H        6.859      -3.217      15.754
  H       12.236      -5.482      12.725
  H        9.341      -8.119      11.203
  H        7.950      -7.604      13.183
  H        9.262      -5.610      15.993
  H        7.693      -4.268      14.025
  H        6.167      -6.156      13.852
  H        6.377      -6.317      16.902
  H        6.085      -8.813      16.310
  H        4.639      -7.802      16.264
  P        3.854      -5.105      14.042
  C        1.286      -4.724      14.348
  O        2.601      -4.317      14.654
  O        3.462      -6.648      14.209
  O        4.248      -4.715      12.656
  H        3.411      -6.929      15.137
  H        0.608      -4.316      15.103
  H        1.194      -5.813      14.348
  H        0.999      -4.333      13.369
  H        4.399     -10.872      10.739
  H        3.378     -11.258      12.103
  H        5.052     -11.760      12.095

 3  4  5  6  7  8  9  10  11  12  13  24  28  29  30  31  32 0
 6-311+G(2d,p)
 ****
 33  34 0
 6-311+G(2d,p)
 ****
 1  2  14  15  16  17  18  19  20  21  22  23  25  26  27 0
 3-21G
 ****
 35  36  37  38  39  40  41  42  43  44  45 0
 3-21G
 ****


