%nproc=1
%NoSave
%Mem=1900MB
#P OB98/GEN NMR

erre ene a

0 1
  C      811.684    -404.394     849.804
  O      810.823    -403.674     848.925
  P      811.188    -403.688     847.361
  C      813.036    -401.827     847.248
  O      812.720    -403.216     847.260
  C      814.480    -401.619     846.817
  O      815.382    -402.345     847.702
  C      814.791    -402.137     845.426
  O      814.271    -401.288     844.416
  C      816.315    -402.211     845.473
  O      816.881    -400.905     845.252
  C      816.571    -402.659     846.932
  N      816.917    -404.059     847.042
  C      817.646    -404.422     848.175
  O      818.012    -403.612     849.023
  N      817.974    -405.755     848.279
  C      817.665    -406.727     847.377
  O      817.973    -407.909     847.535
  C      816.934    -406.284     846.174
  C      816.602    -404.994     846.062
  O      810.346    -402.425     846.829
  O      810.856    -404.988     846.696
  H      810.308    -401.705     847.480
  H      816.485    -400.313     845.924
  H      818.487    -406.028     849.102
  H      816.713    -407.022     845.430
  H      816.064    -404.653     845.180
  H      817.380    -402.063     847.370
  H      816.732    -402.882     844.708
  H      814.385    -403.154     845.298
  H      814.718    -400.552     846.881
  H      812.898    -401.399     848.248
  H      812.342    -401.310     846.566
  P      812.919    -401.763     843.689
  C      814.222    -403.358     842.083
  O      813.217    -403.195     843.065
  O      812.883    -400.774     842.420
  O      811.705    -401.683     844.567
  H      813.745    -400.692     841.989
  H      814.509    -404.399     842.045
  H      815.107    -402.751     842.307
  H      813.832    -403.056     841.104
  H      811.327    -404.301     850.808
  H      812.675    -403.995     849.739
  H      811.697    -405.427     849.524

 3  4  5  6  7  8  9  10  11  12  13  24  28  29  30  31  32 0
 6-311+G(2d,p)
 ****
 33  34 0
 6-311+G(2d,p)
 ****
 1  2  14  15  16  17  18  19  20  21  22  23  25  26  27 0
 3-21G
 ****
 35  36  37  38  39  40  41  42  43  44  45 0
 3-21G
 ****


