%nproc=1
%NoSave
%Mem=1900MB
#P OB98/GEN NMR

erre ene a

0 1
  C      121.330     142.620     155.835
  O      121.067     141.242     156.001
  H      121.833     142.769     154.876
  H      121.985     142.979     156.635
  H      120.397     143.185     155.837
  P      120.381     140.796     157.383
  C      122.403     139.467     158.326
  O      121.568     140.609     158.445
  C      122.302     138.622     159.591
  O      123.129     137.442     159.463
  C      122.792     139.324     160.848
  O      121.838     140.238     161.360
  C      123.026     138.138     161.770
  O      121.810     137.725     162.417
  C      123.528     137.051     160.793
  N      124.970     136.846     160.892
  C      125.427     136.360     162.113
  O      124.685     136.115     163.065
  N      126.782     136.202     162.224
  C      127.706     136.512     161.266
  O      128.915     136.414     161.457
  C      127.162     137.008     159.991
  C      125.841     137.159     159.867
  O      119.899     139.301     157.080
  O      119.260     141.668     157.841
  H      118.937     139.288     156.915
  H      122.039     136.937     162.947
  H      127.135     135.862     163.105
  H      127.868     137.256     159.206
  H      125.419     137.543     158.941
  H      123.035     136.094     161.002
  H      123.739     138.376     162.558
  H      123.754     139.817     160.659
  H      121.257     138.300     159.710
  H      123.444     139.787     158.193
  H      122.099     138.892     157.445
  P      122.328     141.715     161.756
  C      122.479     141.405     164.361
  O      123.151     141.574     163.126
  O      120.947     142.391     162.196
  O      123.052     142.420     160.660
  H      120.349     141.771     162.649
  H      123.197     141.331     165.151
  H      121.892     140.511     164.328
  H      121.840     142.245     164.537

 6  7  8  9  10  11  12  13  14  15  16  27  31  32  33  34  35 0
 6-311+G(2d,p)
 ****
 36  37 0
 6-311+G(2d,p)
 ****
 1  2  3  4  5  17  18  19  20  21  22  23  24  25 0
 3-21G
 ****
 26  28  29  30  38  39  40  41  42  43  44  45 0
 3-21G
 ****


