%nproc=1
%NoSave
%Mem=1900MB
#P OB98/GEN NMR

erre ene a

0 1
  C      213.928    -494.142    -474.161
  O      212.917    -494.398    -473.200
  H      214.815    -493.767    -473.643
  H      213.592    -493.375    -474.862
  H      214.191    -495.055    -474.700
  P      211.537    -495.047    -473.688
  C      211.981    -497.336    -472.600
  O      211.791    -496.632    -473.817
  C      211.773    -498.834    -472.813
  O      212.751    -499.312    -473.772
  C      211.930    -499.664    -471.529
  O      210.967    -500.721    -471.552
  C      213.328    -500.241    -471.651
  O      213.473    -501.463    -470.932
  C      213.467    -500.405    -473.167
  N      217.288    -503.318    -474.736
  C      215.962    -503.635    -474.482
  N      215.613    -504.930    -474.645
  N      215.071    -502.761    -474.099
  C      215.565    -501.511    -473.988
  C      216.844    -501.066    -474.211
  C      217.826    -502.042    -474.614
  O      219.010    -501.817    -474.848
  N      216.953    -499.713    -473.963
  C      215.744    -499.348    -473.596
  N      214.862    -500.399    -473.584
  O      210.923    -494.420    -474.897
  O      210.583    -494.929    -472.408
  H      213.334    -501.257    -469.981
  H      209.979    -494.174    -472.496
  H      217.932    -504.029    -475.021
  H      215.446    -498.348    -473.321
  H      213.033    -501.344    -473.521
  H      214.062    -499.523    -471.263
  H      216.241    -505.651    -474.958
  H      211.808    -499.069    -470.620
  H      214.642    -505.184    -474.489
  H      210.787    -498.988    -473.258
  H      211.257    -496.960    -471.866
  H      212.995    -497.144    -472.227
  P      209.778    -500.702    -470.487
  C      207.913    -500.671    -472.264
  O      208.508    -499.992    -471.163
  O      210.132    -500.202    -469.125
  O      209.324    -502.240    -470.430
  H      208.976    -502.438    -469.540
  H      207.082    -500.103    -472.626
  H      207.575    -501.636    -471.948
  H      208.635    -500.785    -473.045

 6  7  8  9  10  11  12  13  14  15  26  29  33  34 0
 6-311+G(2d,p)
 ****
 36  38  39  40  41 0
 6-311+G(2d,p)
 ****
 1  2  3  4  5  16  17  18  19  20  21  22  23  24  25 0
 3-21G
 ****
 27  28  30  31  32  35  37  42  43  44  45  46  47 0
 3-21G
 ****
 48  49 0
 3-21G
 ****


