%nproc=1
%NoSave
%Mem=1900MB
#P OB98/GEN NMR

erre ene a

0 1
  C     -547.832    -396.051      92.826
  O     -547.960    -394.942      91.948
  P     -547.306    -393.524      92.310
  C     -549.552    -392.459      91.652
  O     -548.142    -392.448      91.457
  C     -550.077    -391.021      91.727
  O     -549.391    -390.346      92.811
  C     -549.839    -390.156      90.488
  O     -550.811    -390.307      89.465
  C     -549.960    -388.760      91.099
  O     -551.350    -388.424      91.269
  C     -549.277    -388.941      92.451
  N     -546.008    -385.004      92.630
  C     -547.359    -385.061      92.705
  N     -548.151    -386.151      92.629
  C     -547.420    -387.273      92.508
  C     -546.041    -387.370      92.424
  C     -545.316    -386.164      92.488
  N     -543.942    -386.106      92.435
  N     -545.655    -388.691      92.279
  C     -546.787    -389.372      92.290
  N     -547.874    -388.560      92.433
  O     -545.821    -393.465      92.153
  O     -547.780    -393.239      93.807
  H     -551.397    -387.634      91.837
  H     -547.219    -392.540      94.209
  H     -547.860    -384.115      92.839
  H     -546.856    -390.441      92.194
  H     -549.773    -388.363      93.249
  H     -549.526    -387.983      90.462
  H     -548.821    -390.292      90.090
  H     -551.146    -391.064      91.974
  H     -549.766    -392.974      92.592
  H     -543.507    -385.220      92.622
  H     -543.432    -386.977      92.496
  H     -550.035    -393.011      90.839
  P     -550.270    -390.443      87.956
  C     -552.612    -389.446      87.309
  O     -551.578    -390.365      87.015
  O     -549.378    -391.604      87.718
  O     -549.562    -389.030      87.706
  H     -550.152    -388.259      87.680
  H     -553.318    -389.442      86.477
  H     -552.214    -388.436      87.438
  H     -553.134    -389.749      88.217
  H     -548.334    -396.898      92.407
  H     -548.269    -395.809      93.772
  H     -546.796    -396.282      92.961

 3  4  5  6  7  8  9  10  11  12  22  25  29  30  31  32 0
 6-311+G(2d,p)
 ****
 33  36  37 0
 6-311+G(2d,p)
 ****
 1  2  13  14  15  16  17  18  19  20  21  23  24  26 0
 3-21G
 ****
 27  28  34  35  38  39  40  41  42  43  44  45  46  47  48 0
 3-21G
 ****


