%nproc=1
%NoSave
%Mem=1900MB
#P OB98/GEN NMR

erre ene a

0 1
  C     -231.482     209.897     -28.214
  O     -230.700     209.901     -27.034
  P     -229.420     210.862     -26.897
  C     -228.539     209.302     -25.037
  O     -228.266     209.935     -26.278
  C     -227.763     207.992     -24.936
  O     -228.242     207.073     -25.941
  C     -226.268     208.125     -25.180
  O     -225.610     208.666     -24.043
  C     -225.899     206.683     -25.519
  O     -225.780     205.904     -24.321
  C     -227.135     206.224     -26.325
  N     -226.920     206.264     -27.768
  C     -226.300     205.143     -28.336
  O     -225.978     204.177     -27.641
  N     -226.097     205.121     -29.692
  C     -226.454     206.137     -30.416
  N     -226.290     206.032     -31.767
  C     -227.055     207.360     -29.852
  C     -227.258     207.352     -28.537
  O     -229.665     212.138     -26.157
  O     -228.917     211.080     -28.401
  H     -225.176     206.379     -23.728
  H     -229.348     211.845     -28.853
  H     -227.321     208.187     -30.496
  H     -227.717     208.203     -28.047
  H     -227.419     205.204     -26.036
  H     -224.957     206.589     -26.072
  H     -226.076     208.763     -26.047
  H     -227.956     207.550     -23.949
  H     -226.045     205.118     -32.123
  H     -229.611     209.090     -24.977
  H     -226.793     206.635     -32.407
  H     -228.271     209.980     -24.216
  P     -224.813     210.045     -24.240
  C     -223.980     209.967     -21.783
  O     -223.628     210.025     -23.155
  O     -225.844     211.145     -23.685
  O     -224.396     210.326     -25.646
  H     -226.288     211.594     -24.427
  H     -223.083     209.722     -21.208
  H     -224.738     209.198     -21.609
  H     -224.351     210.941     -21.451
  H     -232.282     209.195     -28.109
  H     -230.870     209.619     -29.046
  H     -231.885     210.875     -28.378

 3  4  5  6  7  8  9  10  11  12  13  23  27  28  29  30  32 0
 6-311+G(2d,p)
 ****
 34  35 0
 6-311+G(2d,p)
 ****
 1  2  14  15  16  17  18  19  20  21  22  24  25  26 0
 3-21G
 ****
 31  33  36  37  38  39  40  41  42  43  44  45  46 0
 3-21G
 ****


