%nproc=1
%NoSave
%Mem=1900MB
#P OB98/GEN NMR

erre ene a

0 1
  C      583.100     481.281     543.316
  O      582.795     482.381     542.481
  H      583.518     481.660     544.254
  H      583.835     480.630     542.837
  H      582.189     480.713     543.540
  P      582.193     482.035     541.031
  C      579.785     482.279     541.916
  O      580.767     482.769     541.008
  C      578.440     482.964     541.664
  O      577.409     482.221     542.362
  C      578.387     484.407     542.164
  O      577.628     485.197     541.245
  C      577.640     484.303     543.486
  O      576.990     485.519     543.834
  C      576.695     483.131     543.210
  N      574.053     483.711     547.537
  C      574.166     484.488     546.440
  N      574.884     484.249     545.319
  C      575.486     483.049     545.392
  C      575.469     482.155     546.443
  C      574.716     482.528     547.572
  N      574.616     481.762     548.705
  N      576.252     481.049     546.157
  C      576.722     481.268     544.943
  N      576.296     482.475     544.449
  O      582.176     480.585     540.669
  O      583.081     482.969     540.085
  H      576.264     485.314     544.469
  H      583.187     483.865     540.458
  H      573.618     485.423     546.463
  H      577.375     480.601     544.397
  H      575.778     483.448     542.702
  H      578.346     484.053     544.289
  H      579.380     484.846     542.290
  H      578.206     482.896     540.596
  H      580.101     482.462     542.948
  H      574.040     482.096     549.461
  H      575.078     480.860     548.741
  H      579.698     481.196     541.764
  P      578.314     486.501     540.616
  C      579.856     485.729     538.692
  O      578.574     486.241     539.050
  O      579.474     487.066     541.370
  O      577.096     487.548     540.578
  H      577.439     488.441     540.795
  H      579.905     485.600     537.631
  H      580.011     484.786     539.173
  H      580.614     486.417     539.003

 6  7  8  9  10  11  12  13  14  15  25  28  32  33  34  35 0
 6-311+G(2d,p)
 ****
 36  39  40 0
 6-311+G(2d,p)
 ****
 1  2  3  4  5  16  17  18  19  20  21  22  23  24 0
 3-21G
 ****
 26  27  29  30  31  37  38  41  42  43  44  45  46  47 0
 3-21G
 ****
 48 0
 3-21G
 ****


