%nproc=1
%NoSave
%Mem=1900MB
#P OB98/GEN NMR

erre ene a

0 1
  C      508.185     142.324     -29.983
  O      509.284     143.170     -29.624
  P      510.522     142.509     -28.851
  C      511.870     142.537     -31.075
  O      511.479     141.797     -29.927
  C      513.288     142.139     -31.511
  O      514.292     142.787     -30.703
  C      513.571     140.651     -31.390
  O      513.069     139.930     -32.506
  C      515.091     140.638     -31.395
  O      515.578     140.763     -32.746
  C      515.430     141.896     -30.591
  N      518.899     140.318     -27.170
  C      518.944     140.425     -28.516
  N      517.973     140.838     -29.360
  C      516.865     141.174     -28.679
  C      516.675     141.117     -27.308
  C      517.754     140.663     -26.535
  N      517.705     140.557     -25.161
  N      515.400     141.533     -26.975
  C      514.843     141.850     -28.125
  N      515.686     141.641     -29.188
  O      509.854     141.269     -28.085
  O      511.207     143.431     -27.902
  H      515.138     140.069     -33.273
  H      510.300     141.131     -27.230
  H      519.885     140.139     -28.980
  H      513.833     142.234     -28.238
  H      516.304     142.429     -30.986
  H      515.505     139.708     -30.996
  H      513.191     140.253     -30.439
  H      513.424     142.456     -32.555
  H      511.828     143.606     -30.875
  H      518.532     140.253     -24.676
  H      516.861     140.836     -24.686
  H      511.152     142.348     -31.881
  P      512.938     138.339     -32.360
  C      510.462     138.672     -31.662
  O      511.711     138.090     -31.362
  O      514.233     137.952     -31.494
  O      512.890     137.599     -33.656
  H      514.530     137.051     -31.725
  H      509.690     138.170     -31.075
  H      510.220     138.569     -32.727
  H      510.473     139.736     -31.396
  H      507.440     142.902     -30.489
  H      507.763     141.894     -29.099
  H      508.531     141.544     -30.629

 3  4  5  6  7  8  9  10  11  12  22  25  29  30  31  32 0
 6-311+G(2d,p)
 ****
 33  36  37 0
 6-311+G(2d,p)
 ****
 1  2  13  14  15  16  17  18  19  20  21  23  24  26 0
 3-21G
 ****
 27  28  34  35  38  39  40  41  42  43  44  45  46  47  48 0
 3-21G
 ****


