%nproc=1
%NoSave
%Mem=1900MB
#P OB98/GEN NMR

erre ene a

0 1
  C     -270.563     -43.774     126.856
  O     -269.514     -42.802     126.780
  P     -269.911     -41.327     126.285
  C     -269.926     -40.165     128.635
  O     -269.291     -40.327     127.375
  C     -268.884     -39.859     129.709
  O     -268.198     -41.068     130.114
  C     -267.790     -38.903     129.260
  O     -268.263     -37.567     129.192
  C     -266.732     -39.154     130.327
  O     -267.046     -38.427     131.524
  C     -266.885     -40.670     130.576
  N     -265.835     -41.462     129.946
  C     -264.556     -41.299     130.470
  O     -264.299     -40.521     131.389
  N     -263.570     -42.047     129.884
  C     -263.732     -42.900     128.832
  O     -262.813     -43.552     128.356
  C     -265.097     -42.993     128.290
  C     -266.072     -42.281     128.862
  O     -271.482     -41.314     126.583
  O     -269.530     -41.065     124.868
  H     -271.722     -41.815     127.382
  H     -268.011     -38.521     131.660
  H     -262.638     -41.953     130.258
  H     -265.256     -43.643     127.438
  H     -267.084     -42.336     128.473
  H     -266.865     -40.879     131.653
  H     -265.732     -38.844     130.007
  H     -267.407     -39.209     128.279
  H     -269.408     -39.451     130.584
  H     -270.461     -41.082     128.903
  H     -270.663     -39.361     128.558
  P     -267.913     -36.740     127.858
  C     -270.292     -36.185     126.930
  O     -269.140     -35.740     127.609
  O     -268.094     -37.868     126.738
  O     -266.560     -36.110     127.884
  H     -268.895     -38.406     126.866
  H     -271.120     -35.509     127.161
  H     -270.572     -37.197     127.233
  H     -270.113     -36.164     125.851
  H     -270.162     -44.705     127.197
  H     -270.998     -43.906     125.887
  H     -271.313     -43.436     127.540

 3  4  5  6  7  8  9  10  11  12  13  24  28  29  30  31  32 0
 6-311+G(2d,p)
 ****
 33  34 0
 6-311+G(2d,p)
 ****
 1  2  14  15  16  17  18  19  20  21  22  23  25  26  27 0
 3-21G
 ****
 35  36  37  38  39  40  41  42  43  44  45 0
 3-21G
 ****


