%nproc=1
%NoSave
%Mem=1900MB
#P OB98/GEN NMR

erre ene a

0 1
  C     -377.357     108.131       5.292
  O     -377.397     107.717       6.642
  H     -377.349     107.243       4.653
  H     -376.457     108.719       5.086
  H     -378.250     108.722       5.051
  P     -377.159     108.828       7.778
  C     -374.737     108.080       8.286
  O     -375.575     109.114       7.775
  C     -373.263     108.492       8.238
  O     -372.880     108.804       6.882
  C     -372.950     109.748       9.037
  O     -373.046     109.580      10.436
  C     -371.638     110.212       8.421
  O     -370.491     109.593       8.999
  C     -371.796     109.752       6.951
  N     -371.996     110.877       6.044
  C     -371.045     111.887       6.112
  O     -370.090     111.872       6.892
  N     -371.240     112.951       5.273
  C     -372.302     113.119       4.433
  O     -372.445     114.117       3.734
  C     -373.292     112.027       4.423
  C     -373.100     110.970       5.218
  O     -377.711     108.500       9.133
  O     -377.769     110.161       7.139
  H     -370.568     109.692       9.969
  H     -377.924     110.849       7.831
  H     -370.557     113.688       5.299
  H     -374.149     112.127       3.771
  H     -373.817     110.154       5.232
  H     -370.893     109.216       6.627
  H     -371.506     111.290       8.527
  H     -373.697     110.509       8.776
  H     -372.655     107.645       8.578
  H     -374.882     107.194       7.658
  H     -375.032     107.840       9.313
  P     -373.407     110.771      11.440
  C     -370.894     111.294      11.844
  O     -372.169     111.797      11.468
  O     -374.050     110.388      12.735
  O     -374.504     111.587      10.583
  H     -375.157     111.952      11.209
  H     -370.176     112.087      11.816
  H     -370.600     110.522      11.163
  H     -370.946     110.894      12.835

 6  7  8  9  10  11  12  13  14  15  16  26  31  32  33  34  35 0
 6-311+G(2d,p)
 ****
 36  37 0
 6-311+G(2d,p)
 ****
 1  2  3  4  5  17  18  19  20  21  22  23  24  25 0
 3-21G
 ****
 27  28  29  30  38  39  40  41  42  43  44  45 0
 3-21G
 ****


