%nproc=1
%NoSave
%Mem=1900MB
#P OB98/GEN NMR

erre ene a

0 1
  C     -801.814     423.846    -135.434
  O     -802.678     424.151    -136.509
  H     -800.791     424.083    -135.726
  H     -801.877     422.781    -135.200
  H     -802.074     424.440    -134.548
  P     -804.253     424.100    -136.232
  C     -804.384     421.512    -136.460
  O     -804.809     422.776    -136.952
  C     -805.400     420.431    -136.839
  O     -806.672     420.766    -136.216
  C     -805.645     420.313    -138.352
  O     -805.858     418.935    -138.664
  C     -806.942     421.079    -138.551
  O     -807.663     420.706    -139.720
  C     -807.680     420.736    -137.249
  N     -808.762     421.674    -136.952
  C     -810.068     421.230    -137.147
  O     -810.373     420.077    -137.457
  N     -811.046     422.172    -136.953
  C     -810.850     423.481    -136.633
  O     -811.771     424.279    -136.502
  C     -809.447     423.898    -136.453
  C     -808.487     422.986    -136.623
  O     -804.818     425.287    -137.144
  O     -804.650     424.239    -134.795
  H     -804.830     426.130    -136.645
  H     -808.583     421.016    -139.615
  H     -811.997     421.860    -137.091
  H     -809.260     424.931    -136.204
  H     -807.446     423.270    -136.522
  H     -808.080     419.721    -137.298
  H     -806.737     422.158    -138.608
  H     -804.832     420.719    -138.968
  H     -805.070     419.477    -136.419
  H     -804.304     421.561    -135.366
  H     -803.398     421.275    -136.879
  P     -804.568     417.989    -138.761
  C     -805.143     417.512    -141.275
  O     -804.847     416.993    -139.977
  O     -804.750     417.086    -137.454
  O     -803.287     418.754    -138.829
  H     -805.676     416.890    -137.256
  H     -805.300     416.702    -141.956
  H     -804.324     418.111    -141.615
  H     -806.027     418.112    -141.226

 6  7  8  9  10  11  12  13  14  15  16  27  31  32  33  34  35 0
 6-311+G(2d,p)
 ****
 36  37 0
 6-311+G(2d,p)
 ****
 1  2  3  4  5  17  18  19  20  21  22  23  24  25 0
 3-21G
 ****
 26  28  29  30  38  39  40  41  42  43  44  45 0
 3-21G
 ****


