%nproc=1
%NoSave
%Mem=1900MB
#P OB98/GEN NMR

erre ene a

0 1
  C        0.907     -15.070       5.734
  O        2.140     -15.760       5.775
  H        0.272     -15.437       6.543
  H        0.407     -15.254       4.779
  H        1.068     -13.997       5.868
  P        3.234     -15.333       4.683
  C        4.603     -14.178       6.578
  O        4.597     -15.098       5.497
  C        6.042     -13.872       7.006
  O        6.516     -14.959       7.855
  C        7.024     -13.762       5.827
  O        8.070     -12.844       6.189
  C        7.593     -15.169       5.767
  O        8.779     -15.190       5.009
  C        7.732     -15.454       7.258
  N       11.042     -19.330       7.144
  C       11.182     -18.016       6.865
  N       10.250     -17.043       6.930
  C        9.077     -17.540       7.357
  C        8.782     -18.854       7.675
  C        9.831     -19.779       7.549
  N        9.689     -21.123       7.808
  N        7.455     -18.976       8.048
  C        6.964     -17.756       7.961
  N        7.908     -16.858       7.550
  O        2.779     -13.855       4.268
  O        3.355     -16.234       3.503
  H        9.391     -14.481       5.292
  H        2.195     -13.894       3.489
  H       12.173     -17.705       6.549
  H        5.942     -17.472       8.172
  H        8.574     -14.915       7.710
  H        6.889     -15.859       5.296
  H        6.553     -13.434       4.898
  H        6.050     -12.964       7.619
  H        4.050     -14.618       7.413
  H        4.111     -13.250       6.269
  H       10.485     -21.723       7.666
  H        8.783     -21.479       8.078
  P        7.875     -11.280       5.881
  C        6.678      -9.901       7.745
  O        7.894     -10.433       7.244
  O        6.329     -11.212       5.463
  O        8.729     -10.731       4.784
  H        6.229     -10.668       4.660
  H        6.869      -9.369       8.653
  H        5.992     -10.699       7.937
  H        6.256      -9.234       7.023

 6  7  8  9  10  11  12  13  14  15  25  28  32  33  34  35 0
 6-311+G(2d,p)
 ****
 36  37  40 0
 6-311+G(2d,p)
 ****
 1  2  3  4  5  16  17  18  19  20  21  22  23  24 0
 3-21G
 ****
 26  27  29  30  31  38  39 41  42  43  44  45  46  47  48 0
 3-21G
 ****


