%nproc=1
%NoSave
%Mem=1900MB
#P OB98/GEN NMR

erre ene a

0 1
  C      140.163    -335.017    -160.293
  O      140.311    -336.078    -161.208
  H      141.144    -334.560    -160.126
  H      139.790    -335.397    -159.336
  H      139.481    -334.255    -160.685
  P      138.954    -336.758    -161.748
  C      138.987    -336.390    -164.318
  O      138.526    -335.930    -163.059
  C      138.936    -335.256    -165.347
  O      139.985    -334.289    -165.066
  C      139.144    -335.704    -166.784
  O      137.941    -336.197    -167.364
  C      139.568    -334.397    -167.429
  O      138.415    -333.554    -167.642
  C      140.476    -333.793    -166.349
  N      145.159    -333.000    -164.568
  C      143.953    -332.454    -164.172
  N      144.002    -331.559    -163.164
  N      142.801    -332.749    -164.719
  C      142.900    -333.655    -165.721
  C      144.038    -334.270    -166.209
  C      145.301    -333.936    -165.587
  O      146.395    -334.407    -165.884
  N      143.748    -335.131    -167.235
  C      142.433    -335.028    -167.374
  N      141.878    -334.135    -166.487
  O      137.863    -336.318    -160.663
  O      138.996    -338.241    -161.904
  H      137.765    -334.087    -168.134
  H      137.225    -337.044    -160.539
  H      146.015    -332.726    -164.125
  H      141.856    -335.573    -168.108
  H      140.414    -332.695    -166.318
  H      140.042    -334.533    -168.405
  H      144.857    -331.245    -162.734
  H      139.965    -336.437    -166.874
  H      143.128    -331.166    -162.829
  H      137.979    -334.741    -165.235
  H      138.344    -337.210    -164.659
  H      140.010    -336.759    -164.213
  P      137.823    -337.778    -167.618
  C      135.617    -337.866    -166.249
  O      136.948    -338.348    -166.400
  O      139.303    -338.311    -167.283
  O      137.380    -338.170    -168.983
  H      139.463    -339.156    -167.738
  H      135.163    -338.333    -165.400
  H      135.052    -338.097    -167.128
  H      135.636    -336.806    -166.105

 6  7  8  9  10  11  12  13  14  15  26  29  33  34 0
 6-311+G(2d,p)
 ****
 36  38  39  40  41 0
 6-311+G(2d,p)
 ****
 1  2  3  4  5  16  17  18  19  20  21  22  23  24  25 0
 3-21G
 ****
 27  28  30  31  32  35  37  42  43  44  45  46  47 0
 3-21G
 ****
 48  49 0
 3-21G
 ****


