%nproc=1
%NoSave
%Mem=1900MB
#P OB98/GEN NMR

erre ene a

0 1
  C     -171.212     -94.448    -276.878
  O     -170.729     -94.275    -275.560
  H     -171.932     -95.269    -276.880
  H     -170.392     -94.702    -277.557
  H     -171.715     -93.538    -277.220
  P     -169.600     -93.170    -275.290
  C     -171.133     -91.378    -274.234
  O     -170.083     -92.315    -274.017
  C     -172.102     -91.381    -273.042
  O     -172.578     -92.739    -272.863
  C     -171.426     -90.926    -271.736
  O     -172.137     -89.873    -271.080
  C     -171.225     -92.232    -270.977
  O     -171.163     -92.090    -269.574
  C     -172.371     -93.116    -271.487
  N     -172.108     -94.549    -271.377
  C     -172.349     -95.157    -270.146
  O     -172.777     -94.577    -269.149
  N     -172.077     -96.503    -270.087
  C     -171.594     -97.274    -271.104
  O     -171.376     -98.473    -270.988
  C     -171.328     -96.571    -272.368
  C     -171.595     -95.265    -272.449
  O     -169.199     -92.354    -276.474
  O     -168.366     -94.008    -274.711
  H     -170.972     -92.978    -269.200
  H     -167.673     -94.091    -275.396
  H     -172.265     -96.954    -269.204
  H     -170.935     -97.153    -273.193
  H     -171.415     -94.712    -273.371
  H     -173.291     -92.903    -270.930
  H     -170.269     -92.674    -271.295
  H     -170.447     -90.479    -271.943
  H     -172.966     -90.751    -273.288
  H     -171.658     -91.668    -275.153
  H     -170.712     -90.375    -274.369
  P     -171.599     -88.380    -270.898
  C     -172.321     -87.554    -273.289
  O     -172.418     -87.417    -271.880
  O     -170.112     -88.215    -270.885
  O     -172.147     -87.955    -269.440
  H     -171.480     -87.338    -269.062
  H     -172.941     -86.821    -273.762
  H     -172.644     -88.533    -273.575
  H     -171.305     -87.411    -273.592

 6  7  8  9  10  11  12  13  14  15  16  26  31  32  33  34  35 0
 6-311+G(2d,p)
 ****
 36  37 0
 6-311+G(2d,p)
 ****
 1  2  3  4  5  17  18  19  20  21  22  23  24  25 0
 3-21G
 ****
 27  28  29  30  38  39  40  41  42  43  44  45 0
 3-21G
 ****


