%nproc=1
%NoSave
%Mem=1900MB
#P OB98/GEN NMR

erre ene a

0 1
  C       31.230     255.114    -124.707
  O       30.737     255.150    -126.038
  P       29.283     254.538    -126.328
  C       29.980     252.255    -127.364
  O       29.423     253.538    -127.580
  C       30.666     251.745    -128.637
  O       29.685     251.648    -129.713
  C       31.803     252.651    -129.135
  O       32.800     251.809    -129.729
  C       31.119     253.464    -130.218
  O       32.028     254.065    -131.127
  C       30.203     252.393    -130.830
  N       29.135     252.962    -131.650
  C       29.480     253.435    -132.909
  O       30.624     253.403    -133.367
  N       28.463     254.012    -133.625
  C       27.197     254.241    -133.184
  O       26.364     254.872    -133.830
  C       26.880     253.718    -131.841
  C       27.850     253.115    -131.150
  O       28.474     255.781    -126.923
  O       28.606     253.946    -125.135
  H       32.605     254.654    -130.616
  H       27.904     256.183    -126.235
  H       28.688     254.360    -134.551
  H       25.878     253.866    -131.467
  H       27.659     252.739    -130.152
  H       30.799     251.696    -131.432
  H       30.536     254.272    -129.753
  H       32.246     253.272    -128.351
  H       31.046     250.731    -128.450
  H       29.183     251.560    -127.088
  H       30.692     252.292    -126.528
  P       34.070     251.394    -128.831
  C       35.767     252.195    -130.664
  O       35.287     251.148    -129.848
  O       33.641     249.922    -128.373
  O       34.334     252.325    -127.689
  H       33.254     249.394    -129.098
  H       35.695     253.163    -130.151
  H       35.182     252.226    -131.583
  H       36.807     252.008    -130.908
  H       32.204     255.556    -124.675
  H       31.288     254.098    -124.376
  H       30.569     255.661    -124.067

 3  4  5  6  7  8  9  10  11  12  13  23  28  29  30  31  32 0
 6-311+G(2d,p)
 ****
 33  34 0
 6-311+G(2d,p)
 ****
 1  2  14  15  16  17  18  19  20  21  22  24  25  26 0
 3-21G
 ****
 27  35  36  37  38  39  40  41  42  43  44  45 0
 3-21G
 ****


