%nproc=1
%NoSave
%Mem=1900MB
#P OB98/GEN NMR

erre ene a

0 1
  C      425.682     182.645    -670.044
  O      426.525     183.267    -670.995
  H      424.897     182.101    -670.577
  H      425.211     183.406    -669.412
  H      426.249     181.947    -669.427
  P      427.844     183.983    -670.430
  C      429.597     182.221    -671.285
  O      428.939     182.834    -670.184
  C      431.019     182.754    -671.404
  O      431.829     182.347    -670.283
  C      431.781     182.214    -672.610
  O      431.323     182.748    -673.829
  C      433.201     182.637    -672.244
  O      433.413     184.028    -672.542
  C      433.212     182.388    -670.718
  N      433.930     181.173    -670.355
  C      435.285     181.340    -670.030
  O      435.795     182.455    -670.049
  N      436.021     180.229    -669.718
  C      435.468     179.054    -669.711
  N      436.252     177.996    -669.401
  C      434.039     178.844    -670.018
  C      433.336     179.936    -670.338
  O      427.413     184.393    -668.948
  O      428.358     185.118    -671.259
  H      434.349     184.211    -672.345
  H      427.066     183.646    -668.426
  H      433.609     177.849    -669.988
  H      432.282     179.861    -670.579
  H      433.688     183.233    -670.195
  H      433.953     182.074    -672.809
  H      431.755     181.117    -672.609
  H      430.979     183.853    -671.419
  H      437.236     178.179    -669.211
  H      429.040     182.389    -672.214
  H      435.938     177.036    -669.394
  H      429.610     181.138    -671.104
  P      430.591     181.798    -674.904
  C      428.370     182.946    -674.284
  O      429.053     181.697    -674.454
  O      431.254     180.478    -675.141
  O      430.506     182.723    -676.205
  H      430.004     183.551    -676.087
  H      427.359     182.762    -673.986
  H      428.376     183.485    -675.208
  H      428.865     183.523    -673.531

 6  7  8  9  10  11  12  13  14  15  16  26  30  31  32  33  35 0
 6-311+G(2d,p)
 ****
 37  38 0
 6-311+G(2d,p)
 ****
 1  2  3  4  5  17  18  19  20  21  22  23  24  25 0
 3-21G
 ****
 27  28  29  34  36  39  40  41  42  43  44  45  46 0
 3-21G
 ****


