%nproc=1
%NoSave
%Mem=1900MB
#P OB98/GEN NMR

erre ene a

0 1
  C      -80.760    -142.265      97.009
  O      -79.779    -141.345      97.505
  P      -78.252    -141.559      97.061
  C      -77.322    -141.734      99.486
  O      -77.298    -141.046      98.244
  C      -76.377    -141.065     100.489
  O      -76.945    -139.859     101.037
  C      -76.044    -141.935     101.692
  O      -75.011    -142.862     101.394
  C      -75.548    -140.894     102.682
  O      -74.183    -140.543     102.380
  C      -76.476    -139.707     102.397
  N      -78.188    -138.002     106.914
  C      -76.970    -137.942     106.330
  N      -76.587    -138.435     105.133
  C      -77.618    -139.031     104.513
  C      -78.915    -139.171     104.984
  C      -79.190    -138.621     106.246
  N      -80.432    -138.685     106.836
  N      -79.696    -139.850     104.073
  C      -78.889    -140.103     103.062
  N      -77.621    -139.636     103.286
  O      -78.050    -140.454      95.921
  O      -77.958    -142.932      96.552
  H      -73.921    -139.850     103.015
  H      -77.439    -140.791      95.239
  H      -76.200    -137.429     106.900
  H      -79.175    -140.616     102.154
  H      -75.954    -138.745     102.461
  H      -75.562    -141.254     103.714
  H      -76.945    -142.428     102.080
  H      -75.452    -140.800      99.957
  H      -77.037    -142.780      99.343
  H      -80.559    -138.244     107.731
  H      -81.189    -139.127     106.333
  H      -78.349    -141.746      99.866
  P      -75.347    -144.420     101.576
  C      -73.457    -145.036     103.249
  O      -73.953    -145.126     101.928
  O      -75.660    -144.899     100.080
  O      -76.480    -144.702     102.505
  H      -76.304    -145.633     100.093
  H      -72.688    -145.802     103.389
  H      -74.252    -145.199     103.982
  H      -73.007    -144.051     103.409
  H      -81.724    -141.997      97.388
  H      -80.514    -143.256      97.329
  H      -80.774    -142.229      95.940

 3  4  5  6  7  8  9  10  11  12  22  25  29  30  31  32 0
 6-311+G(2d,p)
 ****
 33  36  37 0
 6-311+G(2d,p)
 ****
 1  2  13  14  15  16  17  18  19  20  21  23  24  26 0
 3-21G
 ****
 27  28  34  35  38  39  40  41  42  43  44  45  46  47  48 0
 3-21G
 ****


