%nproc=1
%NoSave
%Mem=1900MB
#P OB98/GEN NMR

erre ene a

0 1
  C      -30.710      27.564     -26.136
  O      -30.939      26.363     -25.427
  H      -31.650      27.889     -26.588
  H      -29.976      27.401     -26.929
  H      -30.357      28.341     -25.454
  P      -29.666      25.679     -24.731
  C      -29.477      23.940     -26.652
  O      -28.835      24.960     -25.900
  C      -28.554      23.472     -27.772
  O      -28.155      24.600     -28.583
  C      -27.256      22.844     -27.285
  O      -27.435      21.507     -26.851
  C      -26.399      22.947     -28.536
  O      -26.645      21.855     -29.436
  C      -26.866      24.286     -29.148
  N      -25.898      25.356     -28.933
  C      -24.737      25.283     -29.696
  O      -24.519      24.383     -30.506
  N      -23.810      26.263     -29.471
  C      -23.912      27.264     -28.549
  O      -23.012      28.070     -28.346
  C      -25.167      27.300     -27.781
  C      -26.084      26.354     -27.997
  O      -30.311      24.461     -23.917
  O      -28.864      26.581     -23.854
  H      -30.365      24.685     -22.969
  H      -26.097      22.025     -30.226
  H      -22.957      26.221     -30.007
  H      -25.284      28.087     -27.045
  H      -27.009      26.348     -27.427
  H      -27.014      24.178     -30.230
  H      -25.336      22.925     -28.296
  H      -26.808      23.460     -26.496
  H      -29.109      22.770     -28.409
  H      -30.399      24.335     -27.091
  H      -29.732      23.111     -25.984
  P      -26.550      20.974     -25.625
  C      -24.955      19.821     -27.365
  O      -25.098      20.642     -26.222
  O      -27.205      19.538     -25.372
  O      -26.549      21.884     -24.445
  H      -27.494      19.101     -26.191
  H      -23.917      19.720     -27.604
  H      -25.470      20.266     -28.191
  H      -25.370      18.855     -27.165

 6  7  8  9  10  11  12  13  14  15  16  27  31  32  33  34  35 0
 6-311+G(2d,p)
 ****
 36  37 0
 6-311+G(2d,p)
 ****
 1  2  3  4  5  17  18  19  20  21  22  23  24  25 0
 3-21G
 ****
 26  28  29  30  38  39  40  41  42  43  44  45 0
 3-21G
 ****


