%nproc=1
%NoSave
%Mem=1900MB
#P OB98/GEN NMR

erre ene a

0 1
  C      -76.480     143.328     171.310
  O      -77.308     142.190     171.448
  H      -76.769     143.857     170.397
  H      -75.437     143.021     171.217
  H      -76.601     144.003     172.160
  P      -77.195     141.307     172.780
  C      -79.746     140.919     172.792
  O      -78.460     140.316     172.805
  C      -80.770     139.995     172.126
  O      -80.349     139.741     170.761
  C      -80.929     138.642     172.829
  O      -82.298     138.244     172.778
  C      -80.089     137.707     171.979
  O      -80.531     136.353     172.068
  C      -80.253     138.313     170.586
  N      -78.540     134.983     167.193
  C      -79.771     135.070     167.815
  N      -80.677     134.119     167.501
  N      -80.086     136.005     168.672
  C      -79.090     136.903     168.873
  C      -77.834     136.929     168.322
  C      -77.489     135.874     167.389
  O      -76.410     135.735     166.821
  N      -77.102     137.992     168.791
  C      -77.918     138.607     169.628
  N      -79.133     137.978     169.721
  O      -76.990     142.088     174.040
  O      -75.969     140.321     172.496
  H      -79.979     135.832     171.446
  H      -75.177     140.595     172.994
  H      -78.346     134.235     166.551
  H      -77.679     139.500     170.188
  H      -81.162     137.964     170.082
  H      -79.042     137.749     172.305
  H      -80.509     133.383     166.831
  H      -80.593     138.674     173.863
  H      -81.598     134.175     167.920
  H      -81.731     140.523     172.072
  H      -79.679     141.858     172.233
  H      -80.051     141.141     173.821
  P      -83.350     138.945     173.766
  C      -85.506     138.423     172.468
  O      -84.758     138.179     173.650
  O      -83.432     140.431     173.665
  O      -82.827     138.495     175.216
  H      -82.992     139.222     175.848
  H      -86.418     137.864     172.501
  H      -84.934     138.122     171.615
  H      -85.730     139.467     172.397

 6  7  8  9  10  11  12  13  14  15  26  29  33  34 0
 6-311+G(2d,p)
 ****
 36  38  39  40  41 0
 6-311+G(2d,p)
 ****
 1  2  3  4  5  16  17  18  19  20  21  22  23  24  25 0
 3-21G
 ****
 27  28  30  31  32  35  37  42  43  44  45  46  47 0
 3-21G
 ****
 48  49 0
 3-21G
 ****


