%nproc=1
%NoSave
%Mem=1900MB
#P OB98/GEN NMR

erre ene a

0 1
  C      760.075    -627.967    1009.938
  O      758.759    -627.452    1009.951
  H      760.386    -628.140    1008.903
  H      760.108    -628.924    1010.470
  H      760.779    -627.267    1010.399
  P      758.204    -626.912    1011.356
  C      756.169    -628.486    1011.722
  O      757.505    -628.169    1012.081
  C      755.630    -629.597    1012.644
  O      756.332    -630.832    1012.331
  C      755.849    -629.319    1014.144
  O      754.728    -629.831    1014.851
  C      757.080    -630.149    1014.474
  O      757.187    -630.486    1015.852
  C      756.862    -631.368    1013.567
  N      758.081    -632.130    1013.337
  C      758.109    -633.440    1013.768
  O      757.138    -634.039    1014.277
  N      759.300    -634.098    1013.633
  C      760.459    -633.566    1013.130
  O      761.505    -634.187    1013.048
  C      760.383    -632.160    1012.686
  C      759.205    -631.513    1012.814
  O      756.963    -625.997    1010.910
  O      759.184    -626.170    1012.204
  H      757.256    -625.079    1010.754
  H      757.898    -631.159    1015.927
  H      759.328    -635.051    1013.946
  H      761.266    -631.699    1012.301
  H      759.122    -630.471    1012.512
  H      756.090    -632.033    1014.000
  H      757.985    -629.605    1014.177
  H      755.994    -628.259    1014.378
  H      754.581    -629.748    1012.420
  H      756.155    -628.851    1010.674
  H      755.541    -627.588    1011.794
  P      753.763    -628.759    1015.569
  C      754.483    -629.626    1017.943
  O      754.376    -628.527    1017.027
  O      752.437    -629.660    1015.824
  O      753.536    -627.536    1014.739
  H      752.663    -630.581    1016.037
  H      754.913    -629.284    1018.861
  H      755.106    -630.385    1017.518
  H      753.510    -630.028    1018.133

 6  7  8  9  10  11  12  13  14  15  16  27  31  32  33  34  35 0
 6-311+G(2d,p)
 ****
 36  37 0
 6-311+G(2d,p)
 ****
 1  2  3  4  5  17  18  19  20  21  22  23  24  25 0
 3-21G
 ****
 26  28  29  30  38  39  40  41  42  43  44  45 0
 3-21G
 ****


