%nproc=1
%NoSave
%Mem=1900MB
#P OB98/GEN NMR

erre ene a

0 1
  C     -302.749    -252.000     -90.516
  O     -302.460    -251.048     -91.523
  H     -303.311    -252.837     -90.937
  H     -301.806    -252.375     -90.108
  H     -303.321    -251.531     -89.710
  P     -303.713    -250.398     -92.284
  C     -302.899    -247.974     -92.706
  O     -303.719    -248.829     -91.921
  C     -301.969    -247.164     -91.803
  O     -301.155    -248.093     -91.043
  C     -301.029    -246.198     -92.542
  O     -301.229    -244.860     -92.082
  C     -299.632    -246.640     -92.135
  O     -298.744    -245.556     -91.890
  C     -299.875    -247.466     -90.876
  N     -294.919    -248.111     -89.889
  C     -295.748    -247.078     -89.641
  N     -297.083    -247.007     -89.830
  C     -297.556    -248.176     -90.304
  C     -296.833    -249.329     -90.579
  C     -295.448    -249.264     -90.369
  N     -294.593    -250.299     -90.668
  N     -297.671    -250.323     -91.060
  C     -298.863    -249.768     -91.119
  N     -298.838    -248.465     -90.688
  O     -304.973    -250.974     -91.475
  O     -303.802    -250.710     -93.740
  H     -297.975    -245.925     -91.418
  H     -305.637    -251.316     -92.102
  H     -295.279    -246.179     -89.246
  H     -299.761    -250.237     -91.498
  H     -299.916    -246.844     -89.976
  H     -299.210    -247.260     -92.940
  H     -301.155    -246.239     -93.631
  H     -302.589    -246.612     -91.076
  H     -303.535    -247.277     -93.268
  H     -293.604    -250.128     -90.596
  H     -294.965    -251.118     -91.131
  H     -302.325    -248.574     -93.414
  P     -301.568    -243.750     -93.198
  C     -303.779    -242.656     -92.370
  O     -303.165    -243.586     -93.244
  O     -301.232    -244.517     -94.566
  O     -300.784    -242.493     -93.057
  H     -300.986    -243.874     -95.260
  H     -304.838    -242.667     -92.524
  H     -303.400    -241.675     -92.569
  H     -303.563    -242.923     -91.357

 6  7  8  9  10  11  12  13  14  15  25  28  32  33  34  35 0
 6-311+G(2d,p)
 ****
 36  39  40 0
 6-311+G(2d,p)
 ****
 1  2  3  4  5  16  17  18  19  20  21  22  23  24 0
 3-21G
 ****
 26  27  29  30  31  37  38  41  42  43  44  45  46  47  48 0
 3-21G
 ****


