%nproc=1
%NoSave
%Mem=1900MB
#P OB98/GEN NMR

erre ene a

0 1
  C     -899.235    -485.051    1394.698
  O     -897.845    -485.064    1394.411
  H     -899.395    -484.513    1395.634
  H     -899.615    -486.051    1394.792
  H     -899.775    -484.508    1393.909
  P     -897.365    -485.637    1392.998
  C     -896.655    -483.319    1392.029
  O     -897.565    -484.423    1391.930
  C     -897.415    -482.021    1392.387
  O     -898.005    -482.194    1393.731
  C     -896.575    -480.764    1392.384
  O     -897.405    -479.658    1392.052
  C     -896.175    -480.686    1393.861
  O     -895.565    -479.464    1394.212
  C     -897.515    -481.058    1394.514
  N     -897.475    -481.393    1395.926
  C     -897.565    -480.347    1396.856
  O     -897.665    -479.150    1396.534
  N     -897.475    -480.729    1398.176
  C     -897.365    -481.983    1398.655
  O     -897.315    -482.253    1399.871
  C     -897.255    -483.011    1397.607
  C     -897.325    -482.711    1396.341
  O     -897.965    -486.940    1392.568
  O     -895.775    -485.708    1393.125
  H     -895.505    -486.632    1393.285
  H     -895.265    -479.515    1395.123
  H     -897.545    -479.952    1398.812
  H     -897.145    -484.046    1398.007
  H     -897.255    -483.481    1395.564
  H     -898.255    -480.224    1394.367
  H     -895.425    -481.475    1394.093
  H     -895.715    -480.816    1391.685
  H     -898.305    -481.943    1391.692
  H     -896.185    -483.205    1391.050
  H     -895.925    -483.544    1392.786
  P     -897.165    -478.781    1390.687
  C     -899.515    -479.059    1389.572
  O     -898.135    -479.363    1389.544
  O     -895.735    -478.646    1390.301
  O     -897.825    -477.340    1391.063
  H     -897.365    -476.667    1390.510
  H     -900.000    -479.527    1388.741
  H     -899.648    -477.999    1389.512
  H     -899.941    -479.421    1390.484

 6  7  8  9  10  11  12  13  14  15  16  27  31  32  33  34  35 0
 6-311+G(2d,p)
 ****
 36  37 0
 6-311+G(2d,p)
 ****
 1  2  3  4  5  17  18  19  20  21  22  23  24  25 0
 3-21G
 ****
 26  28  29  30  38  39  40  41  42  43  44  45 0
 3-21G
 ****


