%nproc=1
%NoSave
%Mem=1900MB
#P OB98/GEN NMR

erre ene a

0 1
  C     -324.797    -238.922    -141.446
  O     -325.425    -240.188    -141.462
  H     -323.722    -239.066    -141.585
  H     -324.964    -238.441    -140.480
  H     -325.175    -238.285    -142.246
  P     -327.020    -240.255    -141.598
  C     -327.088    -240.833    -144.116
  O     -327.383    -239.870    -143.114
  C     -328.360    -241.235    -144.875
  O     -328.870    -240.076    -145.576
  C     -328.066    -242.307    -145.933
  O     -329.200    -243.129    -146.189
  C     -327.763    -241.480    -147.172
  O     -327.957    -242.202    -148.387
  C     -328.718    -240.302    -146.991
  N     -327.702    -237.928    -151.386
  C     -327.972    -239.265    -151.160
  N     -327.968    -240.072    -152.249
  N     -328.195    -239.762    -149.973
  C     -328.088    -238.856    -148.974
  C     -327.808    -237.511    -149.074
  C     -327.594    -236.961    -150.397
  O     -327.335    -235.787    -150.652
  N     -327.779    -236.914    -147.836
  C     -328.041    -237.896    -146.992
  N     -328.260    -239.086    -147.638
  O     -327.523    -238.969    -140.783
  O     -327.659    -241.513    -141.090
  H     -327.392    -242.997    -148.349
  H     -328.448    -239.088    -140.503
  H     -327.565    -237.590    -152.324
  H     -328.092    -237.788    -145.914
  H     -329.705    -240.538    -147.400
  H     -326.710    -241.183    -147.137
  H     -327.614    -239.762    -153.139
  H     -327.221    -242.938    -145.668
  H     -327.851    -241.075    -152.068
  H     -329.136    -241.545    -144.161
  H     -326.656    -241.697    -143.606
  H     -326.332    -240.447    -144.804
  P     -329.257    -244.589    -145.523
  C     -330.863    -243.971    -143.508
  O     -329.622    -244.461    -143.974
  O     -327.734    -245.063    -145.516
  O     -330.145    -245.564    -146.242
  H     -327.614    -245.837    -146.096
  H     -330.871    -243.980    -142.438
  H     -331.653    -244.592    -143.876
  H     -331.005    -242.970    -143.857

 6  7  8  9  10  11  12  13  14  15  26  29  33  34 0
 6-311+G(2d,p)
 ****
 36  38  39  40  41 0
 6-311+G(2d,p)
 ****
 1  2  3  4  5  16  17  18  19  20  21  22  23  24  25 0
 3-21G
 ****
 27  28  30  31  32  35  37  42  43  44  45  46  47 0
 3-21G
 ****
 48  49 0
 3-21G
 ****


