%nproc=1
%NoSave
%Mem=1900MB
#P OB98/GEN NMR

erre ene a

0 1
  C     -166.296     274.479      64.023
  O     -166.998     273.635      63.116
  P     -166.526     273.592      61.586
  C     -164.089     272.988      60.741
  O     -165.264     272.624      61.432
  C     -163.190     271.750      60.586
  O     -162.803     271.245      61.880
  C     -163.868     270.602      59.844
  O     -163.728     270.723      58.439
  C     -163.162     269.395      60.424
  O     -161.861     269.236      59.824
  C     -163.025     269.809      61.908
  N     -164.161     269.525      62.816
  C     -164.525     268.204      63.075
  O     -163.970     267.222      62.589
  N     -165.576     268.030      63.943
  C     -166.170     269.003      64.691
  O     -167.066     268.781      65.496
  C     -165.647     270.356      64.492
  C     -164.695     270.556      63.577
  O     -165.921     275.049      61.334
  O     -167.615     273.262      60.613
  H     -161.395     270.085      59.921
  H     -166.454     275.528      60.673
  H     -165.902     267.088      64.084
  H     -166.057     271.152      65.102
  H     -164.300     271.557      63.422
  H     -162.137     269.344      62.357
  H     -163.707     268.476      60.209
  H     -164.926     270.543      60.125
  H     -162.279     272.050      60.047
  H     -163.552     273.774      61.274
  H     -164.351     273.393      59.758
  P     -164.814     271.541      57.593
  C     -165.791     273.792      58.346
  O     -164.612     273.081      58.015
  O     -166.215     271.032      57.655
  O     -164.224     271.514      56.101
  H     -164.637     270.787      55.580
  H     -165.506     274.764      58.764
  H     -166.370     273.243      59.092
  H     -166.392     273.959      57.448
  H     -166.730     274.395      64.997
  H     -166.362     275.494      63.690
  H     -165.269     274.183      64.064

 3  4  5  6  7  8  9  10  11  12  13  23  28  29  30  31  32 0
 6-311+G(2d,p)
 ****
 33  34 0
 6-311+G(2d,p)
 ****
 1  2  14  15  16  17  18  19  20  21  22  24  25  26  27 0
 3-21G
 ****
 35  36  37  38  39  40  41  42  43  44  45 0
 3-21G
 ****


