%nproc=1
%NoSave
%Mem=1900MB
#P OB98/GEN NMR

erre ene a

0 1
  C     -660.013    1281.168     603.848
  O     -661.250    1280.688     603.307
  P     -662.213    1279.801     604.228
  C     -660.761    1277.693     603.809
  O     -662.070    1278.264     603.797
  C     -660.722    1276.454     604.700
  O     -661.024    1276.802     606.083
  C     -661.784    1275.412     604.338
  O     -661.583    1274.732     603.107
  C     -661.867    1274.580     605.584
  O     -660.846    1273.605     605.652
  C     -661.659    1275.648     606.695
  N     -662.910    1276.025     607.372
  C     -662.855    1276.102     608.745
  O     -661.843    1275.867     609.408
  N     -664.031    1276.469     609.363
  C     -665.221    1276.704     608.752
  O     -666.243    1276.994     609.351
  C     -665.217    1276.570     607.289
  C     -664.092    1276.234     606.668
  O     -663.623    1280.292     604.373
  O     -661.481    1279.827     605.653
  H     -659.987    1274.072     605.663
  H     -662.160    1279.928     606.341
  H     -664.006    1276.555     610.373
  H     -666.157    1276.741     606.771
  H     -664.065    1276.129     605.584
  H     -660.968    1275.271     607.462
  H     -662.828    1274.047     605.648
  H     -662.743    1275.951     604.224
  H     -659.715    1276.033     604.685
  H     -660.036    1278.446     604.170
  H     -660.465    1277.458     602.782
  P     -662.419    1275.059     601.774
  C     -663.735    1272.829     601.948
  O     -662.923    1273.677     601.154
  O     -661.837    1276.062     600.824
  O     -663.781    1275.660     602.390
  H     -664.119    1276.334     601.770
  H     -663.978    1271.931     601.385
  H     -664.680    1273.345     602.210
  H     -663.193    1272.534     602.861
  H     -659.496    1281.739     603.105
  H     -659.407    1280.337     604.144
  H     -660.212    1281.786     604.699

 3  4  5  6  7  8  9  10  11  12  13  23  28  29  30  31  32 0
 6-311+G(2d,p)
 ****
 33  34 0
 6-311+G(2d,p)
 ****
 1  2  14  15  16  17  18  19  20  21  22  24  25  26  27 0
 3-21G
 ****
 35  36  37  38  39  40  41  42  43  44  45 0
 3-21G
 ****


