%nproc=1
%NoSave
%Mem=1900MB
#P OB98/GEN NMR

erre ene a

0 1
  C      130.454     232.996      42.369
  O      129.910     234.149      42.975
  H      129.648     232.448      41.876
  H      130.902     232.353      43.131
  H      131.205     233.260      41.621
  P      130.903     235.294      43.487
  C      132.517     236.831      42.184
  O      131.230     236.233      42.228
  C      132.507     238.080      41.295
  O      131.984     237.724      39.990
  C      131.586     239.166      41.862
  O      132.003     240.475      41.485
  C      130.255     238.859      41.196
  O      129.381     239.985      41.145
  C      130.710     238.369      39.822
  N      126.153     237.788      37.614
  C      126.657     238.873      38.302
  N      125.839     239.947      38.414
  N      127.844     238.898      38.850
  C      128.522     237.731      38.722
  C      128.119     236.580      38.085
  C      126.817     236.579      37.451
  O      126.312     235.636      36.850
  N      129.075     235.599      38.171
  C      130.051     236.153      38.862
  N      129.773     237.455      39.199
  O      132.289     234.521      43.708
  O      130.474     236.017      44.727
  H      129.798     240.655      40.572
  H      132.856     235.011      44.330
  H      125.245     237.832      37.186
  H      130.980     235.663      39.130
  H      130.850     239.214      39.137
  H      129.750     238.085      41.779
  H      124.860     239.894      38.179
  H      131.501     239.120      42.946
  H      126.060     240.608      39.162
  H      133.530     238.439      41.140
  H      133.203     236.081      41.785
  H      132.856     237.077      43.192
  P      132.575     241.454      42.617
  C      134.961     241.800      43.707
  O      134.170     241.429      42.599
  O      132.196     240.717      43.982
  O      132.028     242.847      42.562
  H      131.560     241.252      44.493
  H      135.996     241.701      43.455
  H      134.734     241.164      44.537
  H      134.753     242.816      43.969

 6  7  8  9  10  11  12  13  14  15  26  29  33  34 0
 6-311+G(2d,p)
 ****
 36  38  39  40  41 0
 6-311+G(2d,p)
 ****
 1  2  3  4  5  16  17  18  19  20  21  22  23  24  25 0
 3-21G
 ****
 27  28  30  31  32  35  37  42  43  44  45  46  47 0
 3-21G
 ****
 48  49 0
 3-21G
 ****


