%nproc=1
%NoSave
%Mem=1900MB
#P OB98/GEN NMR

erre ene a

0 1
  C      -42.246     -84.242       4.876
  O      -41.003     -84.362       4.169
  P      -40.894     -84.872       2.651
  C      -39.806     -82.694       1.773
  O      -39.672     -84.101       1.952
  C      -38.478     -81.983       2.047
  O      -38.234     -81.905       3.473
  C      -37.242     -82.680       1.497
  O      -37.132     -82.556       0.092
  C      -36.132     -81.980       2.279
  O      -35.753     -80.745       1.656
  C      -36.811     -81.700       3.634
  N      -36.285     -82.516       4.714
  C      -34.944     -82.317       5.056
  O      -34.245     -81.541       4.407
  N      -34.428     -83.013       6.121
  C      -35.152     -83.909       6.717
  N      -34.594     -84.557       7.776
  C      -36.525     -84.249       6.298
  C      -37.025     -83.519       5.302
  O      -42.176     -84.782       1.889
  O      -40.387     -86.387       2.749
  H      -40.682     -86.882       1.963
  H      -35.524     -80.954       0.729
  H      -37.078     -85.031       6.796
  H      -38.033     -83.692       4.940
  H      -36.703     -80.641       3.899
  H      -35.229     -82.594       2.353
  H      -37.270     -83.742       1.778
  H      -38.549     -80.963       1.649
  H      -33.654     -84.293       8.045
  H      -40.557     -82.324       2.479
  H      -35.078     -85.252       8.325
  H      -40.155     -82.492       0.756
  P      -36.545     -83.820      -0.706
  C      -38.074     -83.317      -2.741
  O      -36.761     -83.552      -2.269
  O      -37.582     -84.992      -0.368
  O      -35.152     -84.202      -0.320
  H      -37.100     -85.831      -0.245
  H      -38.017     -82.701      -3.641
  H      -38.685     -82.799      -1.995
  H      -38.541     -84.272      -2.996
  H      -42.060     -83.884       5.867
  H      -42.722     -85.199       4.926
  H      -42.884     -83.554       4.362

 3  4  5  6  7  8  9  10  11  12  13  24  27  28  29  30  32 0
 6-311+G(2d,p)
 ****
 34  35 0
 6-311+G(2d,p)
 ****
 1  2  14  15  16  17  18  19  20  21  22  23  25  26 0
 3-21G
 ****
 31  33  36  37  38  39  40  41  42  43  44  45  46 0
 3-21G
 ****


