%nproc=1
%NoSave
%Mem=1900MB
#P OB98/GEN NMR

erre ene a

0 1
  C      495.294     387.745     650.490
  O      495.474     387.261     649.181
  P      496.496     386.033     648.995
  C      495.236     385.863     646.701
  O      496.428     385.611     647.444
  C      495.277     385.058     645.407
  O      495.552     383.669     645.671
  C      493.968     385.072     644.614
  O      493.879     386.280     643.843
  C      494.086     383.819     643.776
  O      494.909     384.035     642.611
  C      494.773     382.844     644.757
  N      494.208     378.372     647.075
  C      495.249     378.844     646.257
  N      496.294     378.005     646.077
  N      495.244     380.027     645.671
  C      494.133     380.744     645.942
  C      493.030     380.380     646.718
  C      493.086     379.093     647.382
  O      492.242     378.690     648.182
  N      492.087     381.354     646.728
  C      492.606     382.348     645.982
  N      493.853     382.002     645.506
  O      495.774     384.826     649.750
  O      497.891     386.283     649.502
  H      495.050     383.186     642.161
  H      496.142     384.714     650.656
  H      494.284     377.467     647.500
  H      492.142     383.276     645.780
  H      495.465     382.173     644.242
  H      493.110     383.463     643.400
  H      496.374     377.100     646.469
  H      493.102     385.011     645.285
  H      497.049     378.321     645.483
  H      496.111     385.446     644.766
  H      495.197     386.939     646.453
  H      494.375     385.590     647.291
  P      492.507     386.540     643.051
  C      492.768     389.123     643.086
  O      492.633     387.963     642.303
  O      491.445     386.814     644.206
  O      492.066     385.409     642.175
  H      490.557     386.454     643.956
  H      493.359     389.877     642.543
  H      493.250     388.917     644.074
  H      491.774     389.544     643.286
  H      494.595     388.555     650.478
  H      496.231     388.088     650.875
  H      494.918     386.960     651.112

 3  4  5  6  7  8  9  10  11  12  23  26  30  31 0
 6-311+G(2d,p)
 ****
 33  35  36  37  38 0
 6-311+G(2d,p)
 ****
 1  2  13  14  15  16  17  18  19  20  21  22  24  25 0
 3-21G
 ****
 27  28  29  32  34  39  40  41  42  43  44  45  46  47  48  49 0
 3-21G
 ****


