%nproc=1
%NoSave
%Mem=1900MB
#P OB98/GEN NMR

erre ene a

0 1
  C      552.083     618.704    -507.333
  O      552.797     618.475    -506.138
  H      551.713     617.746    -507.708
  H      552.739     619.145    -508.092
  H      551.230     619.361    -507.150
  P      553.508     619.715    -505.412
  C      551.941     619.707    -503.362
  O      552.386     620.427    -504.506
  C      550.598     620.273    -502.876
  O      549.587     619.881    -503.843
  C      550.186     619.721    -501.503
  O      549.876     620.742    -500.560
  C      549.102     618.708    -501.840
  O      548.163     618.475    -500.803
  C      548.492     619.273    -503.131
  N      547.836     618.270    -503.959
  C      546.445     618.284    -504.007
  O      545.727     619.092    -503.421
  N      545.862     617.314    -504.785
  C      546.520     616.357    -505.497
  O      545.944     615.519    -506.181
  C      547.981     616.373    -505.395
  C      548.566     617.317    -504.642
  O      554.266     620.636    -506.306
  O      554.466     619.033    -504.328
  H      548.656     618.415    -499.965
  H      555.388     619.050    -504.653
  H      544.852     617.324    -504.835
  H      548.543     615.620    -505.929
  H      549.651     617.359    -504.540
  H      547.756     620.045    -502.897
  H      549.584     617.741    -502.059
  H      551.030     619.188    -501.026
  H      550.657     621.364    -502.870
  H      552.701     619.810    -502.583
  H      551.829     618.646    -503.612
  P      550.954     621.524    -499.683
  C      550.868     623.703    -501.139
  O      551.641     622.634    -500.607
  O      551.863     620.675    -498.854
  O      550.039     622.391    -498.664
  H      550.547     622.458    -497.830
  H      551.496     624.339    -501.727
  H      550.440     624.267    -500.337
  H      550.087     623.307    -501.753

 6  7  8  9  10  11  12  13  14  15  16  26  31  32  33  34  35 0
 6-311+G(2d,p)
 ****
 36  37 0
 6-311+G(2d,p)
 ****
 1  2  3  4  5  17  18  19  20  21  22  23  24  25 0
 3-21G
 ****
 27  28  29  30  38  39  40  41  42  43  44  45 0
 3-21G
 ****


