%nproc=1
%NoSave
%Mem=1900MB
#P OB98/GEN NMR

erre ene a

0 1
  C       61.013    -117.062      31.978
  O       62.093    -116.182      31.736
  H       61.380    -118.091      31.910
  H       60.234    -116.922      31.224
  H       60.599    -116.905      32.978
  P       61.848    -114.603      31.873
  C       60.158    -112.918      30.914
  O       60.448    -114.289      31.152
  C       59.274    -112.764      29.677
  O       60.102    -112.883      28.490
  C       58.159    -113.814      29.582
  O       56.992    -113.190      29.050
  C       58.704    -114.814      28.578
  O       57.667    -115.517      27.896
  C       59.537    -113.917      27.661
  N       62.222    -114.272      23.394
  C       61.287    -113.333      23.783
  N       61.002    -112.353      22.898
  N       60.681    -113.353      24.943
  C       61.071    -114.381      25.735
  C       61.984    -115.373      25.464
  C       62.639    -115.349      24.173
  O       63.465    -116.157      23.768
  N       62.089    -116.252      26.516
  C       61.238    -115.793      27.417
  N       60.587    -114.665      26.986
  O       62.982    -113.737      31.423
  O       61.519    -114.394      33.425
  H       58.103    -116.137      27.271
  H       62.303    -114.066      33.903
  H       62.654    -114.213      22.486
  H       61.050    -116.238      28.386
  H       58.932    -113.444      26.877
  H       59.338    -115.547      29.092
  H       61.442    -112.265      21.994
  H       57.928    -114.281      30.545
  H       60.335    -111.639      23.170
  H       58.857    -111.749      29.672
  H       61.107    -112.389      30.757
  H       59.657    -112.494      31.791
  P       55.855    -112.686      30.064
  C       54.216    -113.766      31.736
  O       55.067    -113.973      30.613
  O       54.992    -111.574      29.567
  O       56.703    -112.229      31.348
  H       56.225    -111.507      31.803
  H       53.750    -114.691      32.006
  H       53.464    -113.048      31.486
  H       54.795    -113.404      32.560

 6  7  8  9  10  11  12  13  14  15  26  29  33  34 0
 6-311+G(2d,p)
 ****
 36  38  39  40  41 0
 6-311+G(2d,p)
 ****
 1  2  3  4  5  16  17  18  19  20  21  22  23  24  25 0
 3-21G
 ****
 27  28  30  31  32  35  37  42  43  44  45  46  47 0
 3-21G
 ****
 48  49 0
 3-21G
 ****


