%nproc=1
%NoSave
%Mem=1900MB
#P OB98/GEN NMR

erre ene a

0 1
  C     -517.127      61.062    -953.376
  O     -516.116      61.975    -952.982
  H     -517.852      60.967    -952.564
  H     -516.700      60.069    -953.565
  H     -517.638      61.425    -954.271
  P     -514.843      62.160    -953.941
  C     -513.953      63.796    -952.137
  O     -513.668      62.690    -952.992
  C     -512.885      63.920    -951.061
  O     -513.129      62.969    -950.000
  C     -511.477      63.617    -951.567
  O     -510.974      64.708    -952.321
  C     -510.754      63.335    -950.265
  O     -510.392      64.543    -949.589
  C     -511.838      62.555    -949.476
  N     -511.665      61.110    -949.556
  C     -510.792      60.534    -948.632
  O     -510.213      61.255    -947.799
  N     -510.583      59.187    -948.681
  C     -511.197      58.457    -949.556
  N     -510.940      57.127    -949.550
  C     -512.140      59.012    -950.550
  C     -512.330      60.337    -950.490
  O     -515.051      62.970    -955.185
  O     -514.401      60.654    -954.267
  H     -511.221      65.028    -949.438
  H     -514.854      60.327    -955.070
  H     -512.638      58.381    -951.258
  H     -513.011      60.835    -951.189
  H     -511.825      62.851    -948.416
  H     -509.846      62.761    -950.434
  H     -511.478      62.707    -952.164
  H     -512.941      64.933    -950.627
  H     -510.275      56.787    -948.861
  H     -514.932      63.610    -951.693
  H     -511.426      56.450    -950.127
  H     -514.014      64.727    -952.719
  P     -510.059      64.443    -953.616
  C     -510.425      66.905    -954.334
  O     -509.464      65.894    -954.012
  O     -510.716      63.695    -954.723
  O     -508.772      63.697    -953.010
  H     -508.996      62.756    -952.781
  H     -509.917      67.815    -954.578
  H     -511.066      67.069    -953.493
  H     -511.010      66.587    -955.172

 6  7  8  9  10  11  12  13  14  15  16  26  30  31  32  33  35 0
 6-311+G(2d,p)
 ****
 37  38 0
 6-311+G(2d,p)
 ****
 1  2  3  4  5  17  18  19  20  21  22  23  24  25 0
 3-21G
 ****
 27  28  29  34  36  39  40  41  42  43  44  45  46 0
 3-21G
 ****


