%nproc=1
%NoSave
%Mem=1900MB
#P OB98/GEN NMR

erre ene a

0 1
  C     -212.874    -185.485      49.453
  O     -212.340    -185.894      50.698
  H     -213.816    -186.014      49.283
  H     -212.180    -185.734      48.644
  H     -213.070    -184.409      49.462
  P     -210.960    -185.207      51.145
  C     -211.699    -184.127      53.380
  O     -211.020    -185.206      52.748
  C     -211.297    -184.028      54.852
  O     -211.798    -185.158      55.589
  C     -209.790    -184.015      55.089
  O     -209.256    -182.713      54.876
  C     -209.732    -184.409      56.558
  O     -210.025    -183.266      57.383
  C     -210.869    -185.443      56.670
  N     -208.211    -189.231      58.905
  C     -208.285    -187.909      59.170
  N     -208.979    -186.956      58.506
  C     -209.647    -187.485      57.470
  C     -209.665    -188.815      57.075
  C     -208.914    -189.713      57.848
  N     -208.847    -191.067      57.577
  N     -210.462    -188.985      55.961
  C     -210.957    -187.787      55.721
  N     -210.466    -186.837      56.584
  O     -210.644    -183.904      50.492
  O     -209.918    -186.390      50.843
  H     -209.838    -183.514      58.309
  H     -210.306    -187.253      51.076
  H     -207.716    -187.571      60.028
  H     -211.684    -187.556      54.949
  H     -211.421    -185.339      57.613
  H     -208.744    -184.771      56.852
  H     -209.281    -184.776      54.493
  H     -211.769    -183.130      55.269
  H     -212.783    -184.261      53.299
  H     -208.155    -191.606      58.075
  H     -209.267    -191.400      56.724
  H     -211.419    -183.208      52.852
  P     -207.749    -182.524      54.364
  C     -207.654    -181.218      52.149
  O     -207.707    -181.129      53.570
  O     -207.184    -183.684      53.611
  O     -206.911    -182.211      55.689
  H     -206.034    -182.642      55.648
  H     -207.630    -180.233      51.731
  H     -208.519    -181.736      51.792
  H     -206.773    -181.751      51.858

 6  7  8  9  10  11  12  13  14  15  25  28  32  33  34  35 0
 6-311+G(2d,p)
 ****
 36  39  40 0
 6-311+G(2d,p)
 ****
 1  2  3  4  5  16  17  18  19  20  21  22  23  24 0
 3-21G
 ****
 26  27  29  30  31  37  38  41  42  43  44  45  46  47 0
 3-21G
 ****
 48 0
 3-21G
 ****


