%nproc=1
%NoSave
%Mem=1900MB
#P OB98/GEN NMR

erre ene a

0 1
  C       75.423    -485.912    -356.300
  O       74.461    -484.901    -356.077
  H       76.256    -485.490    -356.868
  H       74.983    -486.730    -356.875
  H       75.803    -486.293    -355.348
  P       73.204    -485.279    -355.158
  C       71.074    -484.419    -356.387
  O       72.090    -484.153    -355.435
  C       69.993    -483.341    -356.305
  O       69.643    -483.140    -354.909
  C       70.443    -481.987    -356.866
  O       69.334    -481.361    -357.520
  C       70.815    -481.201    -355.621
  O       70.762    -479.792    -355.796
  C       69.779    -481.733    -354.622
  N       70.181    -481.523    -353.233
  C       69.497    -480.555    -352.506
  O       68.531    -479.916    -352.925
  N       69.968    -480.324    -351.237
  C       71.036    -480.935    -350.652
  O       71.421    -480.669    -349.517
  C       71.725    -481.941    -351.472
  C       71.275    -482.185    -352.705
  O       73.711    -484.935    -353.681
  O       72.707    -486.681    -355.284
  H       74.131    -485.717    -353.274
  H       70.831    -479.377    -354.908
  H       69.479    -479.625    -350.697
  H       72.583    -482.441    -351.043
  H       71.766    -482.912    -353.340
  H       68.803    -481.264    -354.798
  H       71.829    -481.464    -355.302
  H       71.281    -482.072    -357.559
  H       69.092    -483.700    -356.816
  H       70.626    -485.394    -356.171
  H       71.513    -484.440    -357.391
  P       69.594    -480.741    -358.979
  C       68.323    -478.482    -358.641
  O       68.358    -479.755    -359.263
  O       69.315    -482.006    -359.915
  O       70.951    -480.130    -359.120
  H       68.593    -482.573    -359.597
  H       67.436    -477.963    -358.940
  H       69.183    -477.917    -358.935
  H       68.323    -478.604    -357.578

 6  7  8  9  10  11  12  13  14  15  16  27  31  32  33  34  35 0
 6-311+G(2d,p)
 ****
 36  37 0
 6-311+G(2d,p)
 ****
 1  2  3  4  5  17  18  19  20  21  22  23  24  25 0
 3-21G
 ****
 26  28  29  30  38  39  40  41  42  43  44  45 0
 3-21G
 ****


