%nproc=1
%NoSave
%Mem=1900MB
#P OB98/GEN NMR

erre ene a

0 1
  C        6.522    -116.797    -125.406
  O        5.769    -117.109    -126.567
  P        4.398    -116.311    -126.805
  C        3.188    -118.184    -125.495
  O        3.214    -117.387    -126.672
  C        1.755    -118.453    -125.052
  O        1.776    -119.370    -123.924
  C        0.983    -117.198    -124.613
  O       -0.344    -117.246    -125.156
  C        0.871    -117.360    -123.107
  O       -0.252    -116.664    -122.578
  C        0.786    -118.882    -122.997
  N       -1.109    -121.834    -119.364
  C       -1.477    -121.721    -120.690
  N       -2.538    -122.458    -121.086
  N       -0.865    -120.952    -121.551
  C        0.199    -120.295    -121.024
  C        0.666    -120.333    -119.731
  C       -0.059    -121.143    -118.775
  O        0.163    -121.217    -117.568
  N        1.778    -119.545    -119.581
  C        1.981    -119.028    -120.776
  N        1.019    -119.415    -121.675
  O        4.443    -115.985    -128.371
  O        4.237    -115.068    -125.999
  H       -0.167    -116.680    -121.606
  H        4.355    -115.022    -128.511
  H       -1.626    -122.429    -118.741
  H        2.785    -118.348    -121.029
  H       -0.199    -119.236    -123.331
  H        1.779    -116.971    -122.634
  H       -3.032    -123.098    -120.484
  H        1.463    -116.255    -124.894
  H       -2.809    -122.405    -122.059
  H        1.228    -118.964    -125.868
  H        3.719    -117.660    -124.694
  H        3.703    -119.129    -125.697
  P       -0.682    -116.152    -126.283
  C       -1.215    -114.375    -124.456
  O       -1.664    -115.099    -125.585
  O       -1.631    -116.947    -127.296
  O        0.523    -115.582    -126.954
  H       -1.591    -116.547    -128.184
  H       -0.145    -114.512    -124.276
  H       -1.767    -114.712    -123.575
  H       -1.413    -113.312    -124.614
  H        7.404    -117.402    -125.379
  H        5.931    -116.989    -124.535
  H        6.799    -115.764    -125.428

 3  4  5  6  7  8  9  10  11  12  23  26  30  31  33  0
 6-311+G(2d,p)
 ****
 35  36  37  38 0
 6-311+G(2d,p)
 ****
 1  2  13  14  15  16  17  18  19  20  21  22  24  25  27  28  29 0
 3-21G
 ****
 32  34  39  40  41  42  43  44  45  46  47  48  49 0
 3-21G
 ****


