%nproc=1
%NoSave
%Mem=1900MB
#P OB98/GEN NMR

erre ene a

0 1
  C     -141.240    -691.038      21.672
  O     -142.404    -690.598      22.347
  H     -140.907    -690.245      20.996
  H     -141.469    -691.927      21.083
  H     -140.435    -691.255      22.377
  P     -142.942    -691.453      23.591
  C     -143.576    -693.673      22.441
  O     -142.635    -692.992      23.260
  C     -143.430    -695.190      22.586
  O     -143.886    -695.572      23.927
  C     -144.259    -696.008      21.576
  O     -143.536    -697.212      21.299
  C     -145.510    -696.296      22.385
  O     -146.299    -697.295      21.791
  C     -144.877    -696.606      23.744
  N     -145.831    -696.622      24.841
  C     -146.483    -697.825      25.111
  O     -146.274    -698.868      24.490
  N     -147.399    -697.786      26.126
  C     -147.729    -696.694      26.875
  O     -148.545    -696.728      27.789
  C     -147.031    -695.446      26.528
  C     -146.130    -695.465      25.541
  O     -144.346    -691.162      24.019
  O     -141.897    -691.124      24.761
  H     -142.257    -690.430      25.340
  H     -145.769    -698.103      21.635
  H     -147.878    -698.656      26.337
  H     -147.285    -694.553      27.085
  H     -145.596    -694.566      25.252
  H     -144.344    -697.558      23.715
  H     -146.132    -695.396      22.442
  H     -144.440    -695.467      20.637
  H     -142.365    -695.451      22.530
  H     -143.395    -693.386      21.398
  H     -144.589    -693.365      22.721
  P     -142.411    -697.325      20.163
  C     -143.774    -698.345      18.224
  O     -143.093    -697.199      18.717
  O     -141.537    -698.532      20.292
  O     -141.536    -695.985      20.290
  H     -140.602    -696.189      20.089
  H     -144.180    -698.130      17.258
  H     -144.566    -698.605      18.894
  H     -143.088    -699.163      18.149

 6  7  8  9  10  11  12  13  14  15  16  27  31  32  33  34  35 0
 6-311+G(2d,p)
 ****
 36  37 0
 6-311+G(2d,p)
 ****
 1  2  3  4  5  17  18  19  20  21  22  23  24  25 0
 3-21G
 ****
 26  28  29  30  38  39  40  41  42  43  44  45 0
 3-21G
 ****


