%nproc=1
%NoSave
%Mem=1900MB
#P OB98/GEN NMR

erre ene a

0 1
  C      805.488    -780.164     846.734
  O      804.122    -780.375     847.041
  H      805.685    -779.096     846.602
  H      806.100    -780.538     847.560
  H      805.755    -780.706     845.822
  P      803.051    -779.860     845.967
  C      802.654    -782.082     844.687
  O      803.213    -780.779     844.664
  C      801.595    -782.225     843.596
  O      802.244    -782.032     842.317
  C      800.872    -783.583     843.571
  O      799.459    -783.394     843.711
  C      801.151    -784.137     842.180
  O      800.022    -784.778     841.593
  C      801.574    -782.903     841.387
  N      802.816    -781.759     836.582
  C      802.210    -781.035     837.536
  N      802.000    -781.350     838.830
  C      802.524    -782.562     839.107
  C      803.199    -783.412     838.241
  C      803.317    -782.975     836.915
  N      803.895    -783.741     835.922
  N      803.579    -784.572     838.898
  C      803.109    -784.453     840.113
  N      802.451    -783.256     840.290
  O      803.635    -778.442     845.508
  O      801.654    -779.737     846.477
  H      800.298    -785.068     840.702
  H      802.930    -777.768     845.529
  H      801.833    -780.061     837.231
  H      803.175    -785.195     840.894
  H      800.706    -782.363     840.981
  H      801.976    -784.856     842.244
  H      801.237    -784.266     844.353
  H      800.866    -781.408     843.713
  H      802.173    -782.248     845.666
  H      803.837    -783.399     834.974
  H      804.165    -784.687     836.133
  H      803.450    -782.825     844.564
  P      798.635    -784.587     844.401
  C      798.708    -783.601     846.807
  O      799.086    -784.664     845.935
  O      799.304    -785.902     843.758
  O      797.166    -784.539     844.154
  H      798.659    -786.630     843.751
  H      799.081    -783.797     847.791
  H      797.641    -783.528     846.838
  H      799.118    -782.681     846.446

 6  7  8  9  10  11  12  13  14  15  25  28  32  33  34  35 0
 6-311+G(2d,p)
 ****
 36  39  40 0
 6-311+G(2d,p)
 ****
 1  2  3  4  5  16  17  18  19  20  21  22  23  24 0
 3-21G
 ****
 26  27  29  30  31  37  38  41  42  43  44  45  46  47  48 0
 3-21G
 ****


