%nproc=1
%NoSave
%Mem=1900MB
#P OB98/GEN NMR

erre ene a

0 1
  C     -171.731     329.898     -14.356
  O     -170.579     329.226     -13.838
  P     -170.480     329.115     -12.239
  C     -167.885     329.082     -12.174
  O     -169.093     328.391     -11.875
  C     -166.665     328.362     -11.590
  O     -166.759     328.264     -10.141
  C     -166.475     326.933     -12.124
  O     -165.058     326.702     -12.206
  C     -167.060     326.084     -11.014
  O     -166.606     324.727     -11.101
  C     -166.574     326.867      -9.800
  N     -166.280     324.283      -5.466
  C     -165.414     324.321      -6.539
  N     -164.269     323.603      -6.420
  N     -165.640     325.009      -7.638
  C     -166.801     325.706      -7.590
  C     -167.736     325.756      -6.583
  C     -167.485     324.981      -5.390
  O     -168.219     324.913      -4.411
  N     -168.775     326.615      -6.907
  C     -168.487     327.008      -8.140
  N     -167.279     326.535      -8.573
  O     -171.589     328.022     -11.877
  O     -170.723     330.408     -11.538
  H     -165.648     324.755     -11.305
  H     -172.398     328.457     -11.554
  H     -166.065     323.726      -4.645
  H     -169.103     327.656      -8.737
  H     -165.504     326.702      -9.593
  H     -168.158     326.089     -11.076
  H     -164.012     323.096      -5.587
  H     -166.938     326.751     -13.102
  H     -163.598     323.648      -7.174
  H     -165.771     328.963     -11.823
  H     -167.929     330.099     -11.768
  H     -167.799     329.196     -13.257
  P     -164.465     326.130     -13.572
  C     -163.664     323.848     -12.640
  O     -163.298     325.094     -13.204
  O     -163.669     327.385     -14.180
  O     -165.495     325.630     -14.536
  H     -163.791     327.415     -15.149
  H     -162.883     323.115     -12.866
  H     -164.612     323.488     -13.034
  H     -163.743     323.949     -11.557
  H     -171.687     329.909     -15.425
  H     -171.753     330.903     -13.989
  H     -172.615     329.384     -14.041

 3  4  5  6  7  8  9  10  11  12  23  26  30  31 0
 6-311+G(2d,p)
 ****
 33  35  36  37  38 0
 6-311+G(2d,p)
 ****
 1  2  13  14  15  16  17  18  19  20  21  22  24  25 0
 3-21G
 ****
 27  28  29  32  34  39  40  41  42  43  44  45  46  47  48  49 0
 3-21G
 ****


