%nproc=1
%NoSave
%Mem=1900MB
#P OB98/GEN NMR

erre ene a

0 1
  C      665.276     732.613     182.597
  O      664.499     733.146     183.655
  P      664.758     732.567     185.128
  C      662.439     733.521     185.888
  O      663.313     732.400     185.824
  C      661.264     733.217     186.807
  O      660.486     732.127     186.261
  C      661.636     732.792     188.214
  O      662.054     733.904     189.011
  C      660.334     732.139     188.672
  O      659.389     733.138     189.053
  C      659.864     731.443     187.391
  N      658.108     726.624     187.540
  C      657.485     727.808     187.647
  N      658.014     729.057     187.613
  C      659.353     728.970     187.445
  C      660.127     727.839     187.361
  C      659.460     726.616     187.388
  N      660.095     725.384     187.283
  N      661.463     728.157     187.206
  C      661.500     729.477     187.216
  N      660.241     730.025     187.350
  O      665.387     733.834     185.912
  O      665.657     731.369     185.204
  H      658.539     732.677     189.210
  H      666.051     733.547     186.571
  H      656.385     727.778     187.757
  H      662.383     730.096     187.117
  H      658.782     731.486     187.248
  H      660.473     731.464     189.521
  H      662.447     732.024     188.178
  H      660.612     734.112     186.833
  H      662.080     733.747     184.886
  H      659.562     724.569     187.483
  H      661.115     725.391     187.301
  H      663.015     734.382     186.242
  P      663.360     733.723     189.912
  C      662.409     735.589     191.395
  O      662.906     734.266     191.346
  O      664.304     734.904     189.374
  O      663.968     732.346     189.890
  H      663.820     735.754     189.314
  H      662.076     735.826     192.419
  H      661.540     735.705     190.715
  H      663.181     736.297     191.121
  H      665.000     733.087     181.678
  H      665.102     731.560     182.522
  H      666.313     732.790     182.792

 3  4  5  6  7  8  9  10  11  12  22  25  29  30  31  32 0
 6-311+G(2d,p)
 ****
 33  36  37 0
 6-311+G(2d,p)
 ****
 1  2  13  14  15  16  17  18  19  20  21  23  24  26 0
 3-21G
 ****
 27  28  34  35  38  39  40  41  42  43  44  45  46  47  48 0
 3-21G
 ****


