%nproc=1
%NoSave
%Mem=1900MB
#P OB98/GEN NMR

erre ene a

0 1
  C       29.861      46.298       1.738
  O       29.008      46.164       2.867
  P       28.826      44.706       3.511
  C       26.594      44.088       2.346
  O       27.986      43.830       2.459
  C       25.790      42.788       2.349
  O       26.168      41.996       1.191
  C       26.003      41.911       3.587
  O       24.766      41.240       3.851
  C       27.028      40.897       3.116
  O       27.029      39.719       3.917
  C       26.570      40.696       1.675
  N       28.415      36.462      -0.517
  C       27.321      36.676       0.244
  N       26.895      37.833       0.790
  C       27.732      38.839       0.485
  C       28.903      38.765      -0.249
  C       29.242      37.505      -0.771
  N       30.350      37.286      -1.554
  N       29.506      40.004      -0.326
  C       28.714      40.809       0.351
  N       27.618      40.155       0.837
  O       27.781      44.974       4.693
  O       30.075      44.076       4.021
  H       27.244      39.973       4.834
  H       28.221      44.860       5.558
  H       26.702      35.803       0.433
  H       28.889      41.863       0.517
  H       25.702      40.027       1.605
  H       28.030      41.336       3.158
  H       26.333      42.462       4.474
  H       24.728      43.039       2.235
  H       26.409      44.610       1.404
  H       30.450      36.390      -2.002
  H       30.865      38.087      -1.905
  H       26.273      44.733       3.170
  P       24.278      41.187       5.377
  C       25.163      38.764       5.640
  O       25.188      40.096       6.113
  O       22.842      40.483       5.281
  O       24.194      42.523       6.037
  H       22.279      40.774       6.021
  H       26.153      38.320       5.782
  H       24.900      38.712       4.579
  H       24.432      38.192       6.218
  H       29.880      47.321       1.425
  H       29.494      45.687       0.939
  H       30.851      45.986       2.000

 3  4  5  6  7  8  9  10  11  12  22  25  29  30  31  32 0
 6-311+G(2d,p)
 ****
 33  36  37 0
 6-311+G(2d,p)
 ****
 1  2  13  14  15  16  17  18  19  20  21  23  24  26 0
 3-21G
 ****
 27  28  34  35  38  39  40  41  42  43  44  45  46  47  48 0
 3-21G
 ****


