%nproc=1
%NoSave
%Mem=1900MB
#P OB98/GEN NMR

erre ene a

0 1
  C      -26.906     -99.986    -141.128
  O      -27.602    -100.203    -142.346
  P      -28.357     -98.952    -143.007
  C      -30.766     -99.636    -142.361
  O      -29.697     -98.724    -142.151
  C      -32.103     -98.997    -142.004
  O      -33.167     -99.950    -142.276
  C      -32.227     -98.573    -140.532
  O      -32.843     -97.279    -140.463
  C      -33.208     -99.580    -139.955
  O      -33.898     -99.065    -138.822
  C      -34.091     -99.838    -141.175
  N      -38.128    -101.855    -138.910
  C      -37.709    -100.541    -138.960
  N      -38.442     -99.648    -138.258
  N      -36.666    -100.135    -139.633
  C      -36.046    -101.131    -140.313
  C      -36.370    -102.467    -140.349
  C      -37.493    -102.910    -139.551
  O      -37.859    -104.073    -139.393
  N      -35.516    -103.165    -141.164
  C      -34.676    -102.256    -141.618
  N      -34.926    -101.014    -141.090
  O      -28.888     -99.549    -144.394
  O      -27.515     -97.743    -143.227
  H      -34.274     -98.203    -139.084
  H      -28.559     -99.005    -145.135
  H      -38.929    -102.115    -138.362
  H      -33.856    -102.454    -142.297
  H      -34.745     -98.977    -141.364
  H      -32.662    -100.480    -139.653
  H      -39.277     -99.886    -137.748
  H      -31.279     -98.560    -139.986
  H      -38.164     -98.676    -138.301
  H      -32.267     -98.138    -142.668
  H      -30.612    -100.520    -141.734
  H      -30.766     -99.945    -143.411
  P      -31.860     -96.049    -140.149
  C      -32.916     -95.424    -137.852
  O      -31.800     -95.936    -138.553
  O      -32.714     -94.771    -140.591
  O      -30.545     -96.130    -140.850
  H      -32.124     -94.027    -140.813
  H      -33.790     -95.304    -138.498
  H      -32.655     -94.452    -137.428
  H      -33.169     -96.110    -137.039
  H      -26.455    -100.902    -140.807
  H      -27.592     -99.646    -140.381
  H      -26.147     -99.247    -141.278

 3  4  5  6  7  8  9  10  11  12  23  26  30  31  33  0
 6-311+G(2d,p)
 ****
 35  36  37  38 0
 6-311+G(2d,p)
 ****
 1  2  13  14  15  16  17  18  19  20  21  22  24  25  27  28  29 0
 3-21G
 ****
 32  34  39  40  41  42  43  44  45  46  47  48  49 0
 3-21G
 ****


