%nproc=1
%NoSave
%Mem=1900MB
#P OB98/GEN NMR

erre ene a

0 1
  C     -497.936     141.114    -199.497
  O     -497.683     139.765    -199.106
  P     -496.249     139.065    -199.128
  C     -495.804     138.944    -201.709
  O     -496.104     138.259    -200.500
  C     -495.531     137.994    -202.894
  O     -494.311     137.258    -202.644
  C     -496.650     136.961    -203.014
  O     -497.845     137.276    -203.703
  C     -495.957     135.705    -203.535
  O     -496.012     135.591    -204.960
  C     -494.504     135.887    -203.070
  N     -492.218     131.499    -201.784
  C     -492.441     132.023    -203.041
  N     -492.059     131.277    -204.090
  N     -493.013     133.184    -203.244
  C     -493.425     133.796    -202.110
  C     -493.279     133.358    -200.810
  C     -492.597     132.100    -200.592
  O     -492.357     131.590    -199.502
  N     -493.849     134.239    -199.918
  C     -494.360     135.183    -200.669
  N     -494.122     134.969    -202.016
  O     -495.863     138.350    -197.877
  O     -495.232     140.311    -199.310
  H     -495.951     136.486    -205.333
  H     -494.408     140.071    -198.830
  H     -491.748     130.609    -201.683
  H     -494.901     136.043    -200.301
  H     -493.798     135.719    -203.893
  H     -496.431     134.803    -203.131
  H     -491.727     130.324    -204.012
  H     -496.971     136.711    -201.999
  H     -492.420     131.562    -205.014
  H     -495.366     138.558    -203.812
  H     -494.927     139.573    -201.511
  H     -496.626     139.626    -201.967
  P     -499.137     137.982    -203.077
  C     -500.259     135.844    -202.219
  O     -500.347     136.936    -203.117
  O     -499.568     139.056    -204.187
  O     -498.919     138.644    -201.753
  H     -500.178     139.714    -203.805
  H     -500.946     135.056    -202.544
  H     -500.534     136.173    -201.212
  H     -499.241     135.432    -202.198
  H     -498.978     141.328    -199.386
  H     -497.651     141.248    -200.520
  H     -497.368     141.777    -198.879

 3  4  5  6  7  8  9  10  11  12  23  26  30  31 0
 6-311+G(2d,p)
 ****
 33  35  36  37  38 0
 6-311+G(2d,p)
 ****
 1  2  13  14  15  16  17  18  19  20  21  22  24  25 0
 3-21G
 ****
 27  28  29  32  34  39  40  41  42  43  44  45  46  47  48  49 0
 3-21G
 ****


