%nproc=1
%NoSave
%Mem=1900MB
#P OB98/GEN NMR

erre ene a

0 1
  C      580.308    -227.011    -514.676
  O      579.276    -227.017    -513.706
  H      581.271    -227.115    -514.155
  H      580.310    -226.071    -515.236
  H      580.194    -227.855    -515.362
  P      577.766    -226.809    -514.208
  C      577.914    -224.276    -513.733
  O      577.641    -225.284    -514.694
  C      577.564    -222.892    -514.289
  O      576.118    -222.818    -514.392
  C      578.050    -221.742    -513.404
  O      578.837    -220.773    -514.096
  C      576.769    -221.260    -512.724
  O      576.794    -219.911    -512.306
  C      575.684    -221.601    -513.757
  N      574.355    -221.767    -513.182
  C      573.749    -220.639    -512.640
  O      574.228    -219.506    -512.628
  N      572.501    -220.837    -512.087
  C      571.836    -222.022    -512.030
  O      570.727    -222.130    -511.530
  C      572.544    -223.187    -512.601
  C      573.760    -223.008    -513.142
  O      576.710    -227.250    -513.242
  O      577.680    -227.633    -515.574
  H      576.882    -219.353    -513.091
  H      577.235    -228.484    -515.415
  H      572.058    -220.021    -511.697
  H      572.047    -224.145    -512.562
  H      574.292    -223.839    -513.575
  H      575.638    -220.814    -514.506
  H      576.605    -221.871    -511.819
  H      578.739    -222.124    -512.617
  H      577.976    -222.810    -515.317
  H      578.978    -224.326    -513.484
  H      577.327    -224.465    -512.826
  P      580.427    -220.687    -514.019
  C      580.334    -219.844    -511.527
  O      580.853    -220.766    -512.483
  O      581.050    -219.592    -514.833
  O      580.912    -222.102    -514.630
  H      581.778    -221.925    -515.087
  H      580.740    -220.065    -510.562
  H      579.268    -219.928    -511.493
  H      580.605    -218.848    -511.809

 6  7  8  9  10  11  12  13  14  15  16  26  31  32  33  34  35 0
 6-311+G(2d,p)
 ****
 36  37 0
 6-311+G(2d,p)
 ****
 1  2  3  4  5  17  18  19  20  21  22  23  24  25 0
 3-21G
 ****
 27  28  29  30  38  39  40  41  42  43  44  45 0
 3-21G
 ****


