%nproc=1
%NoSave
%Mem=1900MB
#P OB98/GEN NMR

erre ene a

0 1
  C      755.549    -239.868    -346.771
  O      756.016    -241.112    -347.275
  H      755.402    -239.958    -345.698
  H      754.602    -239.597    -347.242
  H      756.293    -239.083    -346.958
  P      756.313    -241.234    -348.845
  C      754.431    -242.925    -349.405
  O      754.911    -241.589    -349.531
  C      753.093    -243.082    -350.099
  O      752.145    -242.133    -349.568
  C      753.144    -242.844    -351.608
  O      753.609    -244.003    -352.271
  C      751.681    -242.543    -351.893
  O      750.919    -243.767    -351.890
  C      751.309    -241.673    -350.669
  N      749.089    -237.232    -351.697
  C      748.553    -238.509    -351.659
  N      747.235    -238.615    -351.994
  N      749.234    -239.580    -351.351
  C      750.538    -239.322    -351.115
  C      751.191    -238.103    -351.134
  C      750.407    -236.932    -351.424
  O      750.843    -235.769    -351.447
  N      752.542    -238.254    -350.922
  C      752.697    -239.551    -350.719
  N      751.512    -240.238    -350.843
  O      757.424    -242.157    -349.243
  O      756.583    -239.721    -349.304
  H      751.109    -244.206    -352.741
  H      757.536    -239.514    -349.279
  H      748.506    -236.451    -351.962
  H      753.637    -240.034    -350.485
  H      750.258    -241.816    -350.367
  H      751.520    -242.056    -352.855
  H      746.758    -237.892    -352.496
  H      753.743    -241.954    -351.865
  H      746.845    -239.548    -352.016
  H      752.709    -244.083    -349.876
  H      754.343    -243.144    -348.340
  H      755.163    -243.624    -349.849
  P      754.071    -243.950    -353.820
  C      752.471    -245.893    -354.473
  O      752.805    -244.512    -354.642
  O      755.355    -244.638    -354.108
  O      754.058    -242.398    -354.182
  H      754.914    -241.935    -353.994
  H      751.617    -246.129    -355.072
  H      752.248    -246.083    -353.444
  H      753.298    -246.500    -354.776

 6  7  8  9  10  11  12  13  14  15  26  29  33  34 0
 6-311+G(2d,p)
 ****
 36  38  39  40  41 0
 6-311+G(2d,p)
 ****
 1  2  3  4  5  16  17  18  19  20  21  22  23  24  25 0
 3-21G
 ****
 27  28  30  31  32  35  37  42  43  44  45  46  47 0
 3-21G
 ****
 48  49 0
 3-21G
 ****


