%nproc=1
%NoSave
%Mem=1900MB
#P OB98/GEN NMR

erre ene a

0 1
  C      -95.166      62.160      23.706
  O      -96.557      62.376      23.858
  H      -94.764      62.928      23.041
  H      -94.978      61.179      23.262
  H      -94.661      62.234      24.673
  P      -97.383      61.370      24.791
  C      -97.913      58.844      24.704
  O      -97.455      59.984      23.988
  C      -98.636      57.889      23.760
  O      -99.867      58.476      23.297
  C      -97.832      57.524      22.513
  O      -96.890      56.505      22.810
  C      -98.948      57.058      21.593
  O      -99.370      55.734      21.972
  C     -100.056      58.080      21.910
  N     -101.243      60.039      17.387
  C     -101.363      58.743      17.852
  N     -101.827      57.833      16.969
  N     -101.039      58.372      19.064
  C     -100.524      59.376      19.809
  C     -100.340      60.693      19.455
  C     -100.755      61.105      18.131
  O     -100.681      62.246      17.684
  N      -99.730      61.404      20.457
  C      -99.580      60.526      21.430
  N     -100.033      59.275      21.082
  O      -98.715      61.856      25.277
  O      -96.383      61.047      25.997
  H     -100.244      55.593      21.564
  H      -96.526      61.654      26.745
  H     -101.492      60.258      16.436
  H      -99.154      60.742      22.402
  H     -101.059      57.647      21.824
  H      -98.653      57.019      20.544
  H     -101.816      58.003      15.971
  H      -97.356      58.403      22.064
  H     -101.875      56.869      17.275
  H      -98.903      56.991      24.331
  H      -98.593      59.196      25.487
  H      -97.071      58.327      25.176
  P      -95.373      56.604      22.295
  C      -94.284      56.550      19.951
  O      -95.446      56.285      20.725
  O      -94.398      55.770      23.055
  O      -95.042      58.166      22.316
  H      -94.687      58.483      23.183
  H      -94.470      56.294      18.929
  H      -93.467      55.967      20.322
  H      -94.040      57.589      20.019

 6  7  8  9  10  11  12  13  14  15  26  29  33  34 0
 6-311+G(2d,p)
 ****
 36  38  39  40  41 0
 6-311+G(2d,p)
 ****
 1  2  3  4  5  16  17  18  19  20  21  22  23  24  25 0
 3-21G
 ****
 27  28  30  31  32  35  37  42  43  44  45  46  47 0
 3-21G
 ****
 48  49 0
 3-21G
 ****


