%nproc=1
%NoSave
%Mem=1900MB
#P OB98/GEN NMR

erre ene a

0 1
  C      -42.937       2.225     103.427
  O      -43.272       1.199     104.338
  H      -43.724       2.292     102.669
  H      -41.996       1.985     102.926
  H      -42.854       3.191     103.932
  P      -42.440       1.068     105.702
  C      -43.984       2.703     106.974
  O      -43.480       1.376     106.887
  C      -44.946       2.822     108.158
  O      -46.109       1.977     107.890
  C      -44.332       2.364     109.498
  O      -44.879       3.169     110.550
  C      -44.859       0.947     109.601
  O      -44.815       0.465     110.921
  C      -46.267       1.112     109.032
  N      -46.856      -0.178     108.677
  C      -47.596      -0.821     109.661
  O      -47.763      -0.371     110.795
  N      -48.086      -2.056     109.332
  C      -47.821      -2.740     108.182
  O      -48.221      -3.874     107.969
  C      -46.987      -2.031     107.196
  C      -46.554      -0.798     107.480
  O      -41.169       1.848     105.770
  O      -42.197      -0.506     105.869
  H      -45.258       1.097     111.521
  H      -41.443      -0.672     106.465
  H      -48.634      -2.532     110.034
  H      -46.743      -2.547     106.277
  H      -45.924      -0.252     106.785
  H      -46.920       1.623     109.748
  H      -44.256       0.276     108.979
  H      -43.243       2.421     109.511
  H      -45.312       3.855     108.221
  H      -44.511       2.931     106.039
  H      -43.151       3.403     107.094
  P      -44.020       4.312     111.278
  C      -44.946       6.299     109.941
  O      -44.798       5.720     111.234
  O      -42.595       4.389     110.825
  O      -44.070       3.913     112.832
  H      -43.175       3.984     113.213
  H      -45.473       7.226     110.024
  H      -45.496       5.631     109.312
  H      -43.980       6.475     109.516

 6  7  8  9  10  11  12  13  14  15  16  26  31  32  33  34  35 0
 6-311+G(2d,p)
 ****
 36  37 0
 6-311+G(2d,p)
 ****
 1  2  3  4  5  17  18  19  20  21  22  23  24  25 0
 3-21G
 ****
 27  28  29  30  38  39  40  41  42  43  44  45 0
 3-21G
 ****


