%nproc=1
%NoSave
%Mem=1900MB
#P OB98/GEN NMR

erre ene a

0 1
  C     -158.353    -270.374      17.587
  O     -157.371    -269.609      16.899
  P     -157.446    -268.009      17.002
  C     -154.866    -267.768      17.039
  O     -156.080    -267.435      16.382
  C     -153.746    -266.797      16.662
  O     -153.337    -267.064      15.288
  C     -154.134    -265.317      16.739
  O     -152.960    -264.592      17.126
  C     -154.479    -264.976      15.301
  O     -154.409    -263.574      15.047
  C     -153.440    -265.819      14.564
  N     -154.711    -263.665      10.103
  C     -154.361    -263.128      11.289
  N     -154.033    -263.769      12.436
  C     -154.099    -265.099      12.270
  C     -154.473    -265.787      11.127
  C     -154.790    -265.014       9.999
  N     -155.136    -265.557       8.782
  N     -154.445    -267.148      11.351
  C     -154.062    -267.279      12.605
  N     -153.817    -266.071      13.191
  O     -157.283    -267.749      18.574
  O     -158.700    -267.396      16.477
  H     -153.478    -263.297      15.117
  H     -158.122    -267.413      18.945
  H     -154.331    -262.042      11.328
  H     -153.949    -268.221      13.130
  H     -152.451    -265.345      14.563
  H     -155.497    -265.311      15.076
  H     -154.958    -265.105      17.432
  H     -152.880    -267.004      17.301
  H     -154.570    -268.776      16.742
  H     -155.208    -264.941       7.989
  H     -155.010    -266.554       8.642
  H     -155.023    -267.763      18.124
  P     -153.182    -263.125      17.743
  C     -151.357    -263.334      19.577
  O     -151.783    -262.686      18.389
  O     -154.124    -263.398      19.008
  O     -153.795    -262.152      16.792
  H     -154.664    -262.608      19.194
  H     -150.267    -263.398      19.567
  H     -151.772    -264.341      19.664
  H     -151.672    -262.740      20.439
  H     -158.172    -271.416      17.424
  H     -159.325    -270.119      17.220
  H     -158.301    -270.162      18.635

 3  4  5  6  7  8  9  10  11  12  22  25  29  30  31  32 0
 6-311+G(2d,p)
 ****
 33  36  37 0
 6-311+G(2d,p)
 ****
 1  2  13  14  15  16  17  18  19  20  21  23  24  26 0
 3-21G
 ****
 27  28  34  35  38  39  40  41  42  43  44  45  46  47  48 0
 3-21G
 ****


