%nproc=1
%NoSave
%Mem=1900MB
#P OB98/GEN NMR

erre ene a

0 1
  C      136.716    -909.586     -46.619
  O      136.874    -908.807     -47.787
  H      136.055    -909.044     -45.933
  H      137.686    -909.725     -46.135
  H      136.269    -910.558     -46.846
  P      137.418    -909.521     -49.117
  C      135.375    -911.075     -49.385
  O      136.779    -910.993     -49.178
  C      135.028    -911.886     -50.640
  O      135.547    -913.234     -50.527
  C      133.520    -912.030     -50.850
  O      132.894    -910.954     -51.503
  C      133.440    -913.302     -51.687
  O      133.607    -913.008     -53.089
  C      134.626    -914.125     -51.167
  N      131.951    -918.434     -50.421
  C      132.024    -917.632     -51.546
  N      131.228    -917.998     -52.583
  N      132.779    -916.569     -51.631
  C      133.440    -916.270     -50.492
  C      133.445    -916.987     -49.302
  C      132.643    -918.187     -49.235
  O      132.547    -918.935     -48.263
  N      134.245    -916.379     -48.359
  C      134.656    -915.271     -48.945
  N      134.226    -915.178     -50.252
  O      138.958    -909.822     -48.783
  O      137.293    -908.716     -50.374
  H      133.452    -913.825     -53.594
  H      139.474    -909.861     -49.608
  H      131.388    -919.259     -50.422
  H      135.290    -914.522     -48.478
  H      135.165    -914.609     -51.990
  H      132.469    -913.802     -51.580
  H      130.546    -918.727     -52.523
  H      133.023    -912.215     -49.886
  H      131.050    -917.299     -53.317
  H      135.520    -911.427     -51.507
  H      135.016    -910.051     -49.492
  H      134.880    -911.503     -48.508
  P      131.347    -910.629     -51.227
  C      131.893    -909.301     -49.046
  O      131.199    -910.376     -49.652
  O      130.647    -912.042     -51.461
  O      130.751    -909.570     -52.101
  H      130.285    -912.111     -52.369
  H      131.679    -909.284     -47.998
  H      131.580    -908.379     -49.489
  H      132.945    -909.428     -49.193

 6  7  8  9  10  11  12  13  14  15  26  29  33  34 0
 6-311+G(2d,p)
 ****
 36  38  39  40  41 0
 6-311+G(2d,p)
 ****
 1  2  3  4  5  16  17  18  19  20  21  22  23  24  25 0
 3-21G
 ****
 27  28  30  31  32  35  37  42  43  44  45  46  47 0
 3-21G
 ****
 48  49 0
 3-21G
 ****


