%nproc=1
%NoSave
%Mem=1900MB
#P OB98/GEN NMR

erre ene a

0 1
  C       64.099     -20.137     -55.436
  O       64.151     -20.153     -54.020
  P       63.615     -21.472     -53.275
  C       61.406     -20.272     -52.620
  O       62.013     -21.376     -53.281
  C       60.113     -20.687     -51.916
  O       59.615     -19.565     -51.148
  C       59.004     -21.142     -52.865
  O       58.301     -22.213     -52.235
  C       58.091     -19.934     -52.945
  O       56.760     -20.301     -53.305
  C       58.242     -19.349     -51.532
  N       57.889     -17.935     -51.479
  C       56.775     -17.534     -52.223
  O       56.191     -18.345     -52.942
  N       56.384     -16.220     -52.174
  C       57.106     -15.360     -51.526
  N       56.676     -14.070     -51.505
  C       58.357     -15.719     -50.831
  C       58.673     -17.012     -50.830
  O       63.995     -21.197     -51.746
  O       64.193     -22.751     -53.782
  H       56.768     -20.592     -54.244
  H       64.199     -22.032     -51.283
  H       58.942     -14.956     -50.337
  H       59.560     -17.372     -50.325
  H       57.609     -19.893     -50.819
  H       58.470     -19.229     -53.695
  H       59.384     -21.470     -53.837
  H       60.354     -21.486     -51.204
  H       55.823     -13.846     -52.002
  H       61.160     -19.506     -53.360
  H       57.174     -13.331     -51.027
  H       62.115     -19.842     -51.906
  P       57.334     -23.108     -53.149
  C       55.345     -21.819     -52.165
  O       56.012     -22.223     -53.344
  O       56.830     -24.209     -52.096
  O       57.906     -23.750     -54.368
  H       56.272     -24.866     -52.550
  H       54.552     -21.117     -52.435
  H       56.040     -21.322     -51.483
  H       54.894     -22.687     -51.676
  H       64.484     -19.206     -55.797
  H       63.085     -20.252     -55.757
  H       64.689     -20.941     -55.824

 3  4  5  6  7  8  9  10  11  12  13  21  23  27  28  29  30  32 0
 6-311+G(2d,p)
 ****
 34  35 0
 6-311+G(2d,p)
 ****
 1  2  14  15  16  17  18  19  20  22  24  25  26 0
 3-21G
 ****
 31  33  36  37  38  39  40  41  42  43  44  45  46 0
 3-21G
 ****


