%nproc=1
%NoSave
%Mem=1900MB
#P OB98/GEN NMR

erre ene a

0 1
  C       10.597     -44.601     104.685
  O        9.211     -44.873     104.570
  P        8.415     -44.187     103.356
  C        6.885     -42.898     105.011
  O        7.788     -42.821     103.918
  C        5.955     -41.684     105.037
  O        4.964     -41.873     106.086
  C        6.660     -40.345     105.307
  O        5.960     -39.351     104.552
  C        6.435     -40.164     106.797
  O        6.642     -38.839     107.255
  C        5.012     -40.697     106.925
  N        2.408     -39.163     111.048
  C        2.512     -38.644     109.804
  N        3.219     -39.113     108.754
  C        3.857     -40.249     109.083
  C        3.861     -40.886     110.312
  C        3.091     -40.297     111.328
  N        2.994     -40.825     112.599
  N        4.655     -42.013     110.279
  C        5.126     -42.055     109.049
  N        4.655     -41.023     108.286
  O        7.137     -45.132     103.182
  O        9.194     -44.057     102.084
  H        6.511     -38.796     108.223
  H        6.911     -45.249     102.240
  H        1.954     -37.729     109.628
  H        5.814     -42.797     108.669
  H        4.270     -39.984     106.544
  H        7.138     -40.804     107.343
  H        7.713     -40.343     105.011
  H        5.415     -41.642     104.083
  H        7.449     -42.917     105.948
  H        2.586     -40.227     113.303
  H        3.663     -41.542     112.852
  H        6.313     -43.830     104.945
  P        6.778     -38.096     103.976
  C        6.321     -36.908     106.208
  O        7.308     -37.344     105.293
  O        5.580     -37.137     103.518
  O        7.775     -38.400     102.912
  H        4.923     -37.020     104.226
  H        6.821     -36.506     107.093
  H        5.685     -37.745     106.509
  H        5.715     -36.119     105.755
  H       10.993     -45.121     105.532
  H       10.745     -43.549     104.811
  H       11.099     -44.928     103.799

 3  4  5  6  7  8  9  10  11  12  22  25  29  30  31  32 0
 6-311+G(2d,p)
 ****
 33  36  37 0
 6-311+G(2d,p)
 ****
 1  2  13  14  15  16  17  18  19  20  21  23  24  26 0
 3-21G
 ****
 27  28  34  35  38  39  40  41  42  43  44  45  46  47  48 0
 3-21G
 ****


