%nproc=1
%NoSave
%Mem=1900MB
#P OB98/GEN NMR

erre ene a

0 1
  C      766.003    -206.918    -356.310
  O      764.817    -206.937    -357.070
  H      766.740    -206.287    -356.818
  H      766.419    -207.928    -356.202
  H      765.805    -206.497    -355.315
  P      763.671    -207.992    -356.670
  C      763.698    -210.455    -355.878
  O      764.429    -209.399    -356.503
  C      763.914    -211.787    -356.599
  O      763.434    -211.700    -357.964
  C      765.381    -212.175    -356.723
  O      765.983    -212.543    -355.493
  C      765.361    -213.188    -357.867
  O      765.057    -214.519    -357.456
  C      764.202    -212.638    -358.747
  N      764.695    -212.042    -359.982
  C      765.060    -212.940    -360.979
  O      765.009    -214.164    -360.847
  N      765.539    -212.377    -362.137
  C      765.723    -211.051    -362.359
  O      766.200    -210.620    -363.404
  C      765.353    -210.157    -361.266
  C      764.851    -210.680    -360.139
  O      762.480    -208.048    -357.582
  O      763.308    -207.597    -355.161
  H      765.117    -215.084    -358.252
  H      762.444    -207.994    -354.891
  H      765.801    -213.017    -362.877
  H      765.485    -209.078    -361.405
  H      764.565    -210.033    -359.308
  H      763.517    -213.452    -359.008
  H      766.320    -213.220    -358.382
  H      765.942    -211.311    -357.082
  H      763.325    -212.556    -356.092
  H      762.628    -210.190    -355.920
  H      763.991    -210.531    -354.819
  P      767.422    -212.032    -355.037
  C      769.854    -212.184    -355.975
  O      768.528    -212.709    -355.993
  O      767.685    -211.978    -353.570
  O      767.404    -210.504    -355.576
  H      767.913    -209.963    -354.941
  H      770.465    -212.736    -356.658
  H      770.257    -212.268    -354.988
  H      769.834    -211.154    -356.266

 6  7  8  9  10  11  12  13  14  15  16  26  31  32  33  34  35 0
 6-311+G(2d,p)
 ****
 36  37 0
 6-311+G(2d,p)
 ****
 1  2  3  4  5  17  18  19  20  21  22  23  24  25 0
 3-21G
 ****
 27  28  29  30  38  39  40  41  42  43  44  45 0
 3-21G
 ****


