%nproc=1
%NoSave
%Mem=1900MB
#P OB98/GEN NMR

erre ene a

0 1
  C       91.057     642.240     144.223
  O       90.795     641.506     145.402
  H       91.101     643.302     144.475
  H       90.261     642.079     143.495
  H       92.016     641.936     143.798
  P       90.582     639.923     145.226
  C       93.184     639.775     145.375
  O       91.927     639.290     145.834
  C       94.304     639.242     146.258
  O       94.215     639.801     147.589
  C       94.287     637.724     146.462
  O       94.789     637.007     145.353
  C       95.194     637.614     147.669
  O       96.563     637.803     147.265
  C       94.693     638.791     148.523
  N       93.627     638.414     149.458
  C       94.032     637.891     150.693
  O       95.229     637.756     150.958
  N       93.070     637.488     151.590
  C       91.812     637.617     151.290
  N       90.908     637.202     152.216
  C       91.344     638.180     150.009
  C       92.292     638.553     149.155
  O       90.768     639.695     143.654
  O       89.316     639.366     145.789
  H       96.578     638.587     146.686
  H       90.800     638.728     143.455
  H       90.288     638.257     149.803
  H       92.021     638.977     148.190
  H       95.516     639.244     149.097
  H       95.145     636.643     148.161
  H       93.286     637.366     146.734
  H       95.257     639.571     145.829
  H       91.263     636.770     153.057
  H       93.163     640.869     145.415
  H       89.916     637.124     152.019
  H       93.352     639.458     144.342
  P       94.177     635.548     145.075
  C       92.087     636.396     143.767
  O       93.303     635.655     143.736
  O       93.076     635.395     146.225
  O       95.174     634.432     145.102
  H       93.010     634.465     146.522
  H       91.629     636.370     142.801
  H       92.294     637.411     144.036
  H       91.425     635.964     144.488

 6  7  8  9  10  11  12  13  14  15  16  26  30  31  32  33  35 0
 6-311+G(2d,p)
 ****
 37  38 0
 6-311+G(2d,p)
 ****
 1  2  3  4  5  17  18  19  20  21  22  23  24  25 0
 3-21G
 ****
 27  28  29  34  36  39  40  41  42  43  44  45  46 0
 3-21G
 ****


