%nproc=1
%NoSave
%Mem=1900MB
#P OB98/GEN NMR

erre ene a

0 1
  C      670.044    -891.030    -293.135
  O      669.836    -892.300    -292.518
  P      670.263    -893.620    -293.337
  C      672.819    -893.180    -293.549
  O      671.567    -893.240    -294.199
  C      673.884    -893.880    -294.392
  O      673.526    -895.280    -294.510
  C      674.055    -893.320    -295.814
  O      675.440    -893.480    -296.163
  C      673.204    -894.270    -296.645
  O      673.577    -894.260    -298.015
  C      673.452    -895.580    -295.932
  N      671.799    -899.260    -298.990
  C      672.891    -898.410    -299.110
  N      673.685    -898.630    -300.159
  N      673.182    -897.470    -298.268
  C      672.293    -897.360    -297.246
  C      671.157    -898.110    -297.023
  C      670.870    -899.180    -297.944
  O      669.956    -900.000    -297.817
  N      670.478    -897.660    -295.931
  C      671.240    -896.720    -295.431
  N      672.374    -896.540    -296.171
  O      669.106    -893.720    -294.439
  O      670.417    -894.870    -292.516
  H      673.658    -893.320    -298.301
  H      668.398    -894.330    -294.134
  H      671.626    -899.990    -299.651
  H      671.030    -896.130    -294.548
  H      674.390    -896.060    -296.229
  H      672.149    -893.970    -296.575
  H      673.546    -899.390    -300.854
  H      673.763    -892.270    -295.904
  H      674.508    -898.070    -300.279
  H      674.834    -893.830    -293.843
  H      672.739    -893.690    -292.585
  H      673.092    -892.120    -293.349
  P      676.123    -892.340    -297.053
  C      676.872    -890.770    -295.130
  O      676.005    -890.970    -296.239
  O      675.082    -892.120    -298.249
  O      677.481    -892.700    -297.574
  H      675.558    -891.880    -299.060
  H      677.000    -889.690    -294.949
  H      677.862    -891.190    -295.303
  H      676.453    -891.250    -294.254
  H      669.714    -890.255    -292.475
  H      669.488    -890.982    -294.048
  H      671.085    -890.901    -293.344

 3  4  5  6  7  8  9  10  11  12  23  26  30  31 0
 6-311+G(2d,p)
 ****
 33  35  36  37  38 0
 6-311+G(2d,p)
 ****
 1  2  13  14  15  16  17  18  19  20  21  22  24  25 0
 3-21G
 ****
 27  28  29  32  34  39  40  41  42  43  44  45  46  47  48  49 0
 3-21G
 ****


