%nproc=1
%NoSave
%Mem=1900MB
#P OB98/GEN NMR

erre ene a

0 1
  C      216.762     145.673    -280.246
  O      217.201     145.624    -278.884
  P      217.997     144.315    -278.412
  C      220.476     144.774    -279.054
  O      219.493     144.737    -278.026
  C      221.879     144.715    -278.444
  O      222.859     144.316    -279.422
  C      222.361     146.059    -277.922
  O      221.767     146.348    -276.671
  C      223.871     145.851    -277.854
  O      224.277     145.326    -276.579
  C      224.133     144.818    -278.979
  N      224.896     145.375    -280.079
  C      226.287     145.319    -279.949
  O      226.798     144.844    -278.936
  N      227.063     145.831    -280.960
  C      226.498     146.371    -281.998
  N      227.319     146.865    -282.962
  C      225.033     146.477    -282.161
  C      224.300     145.963    -281.174
  O      218.180     143.486    -279.770
  O      217.280     143.511    -277.373
  H      223.974     145.981    -275.916
  H      218.163     142.530    -279.587
  H      224.608     146.940    -283.038
  H      223.216     145.992    -281.208
  H      224.688     143.959    -278.581
  H      224.410     146.791    -277.995
  H      222.128     146.845    -278.649
  H      221.875     143.976    -277.630
  H      228.318     146.781    -282.815
  H      220.367     145.684    -279.649
  H      226.989     147.312    -283.806
  H      220.311     143.930    -279.736
  P      221.346     147.864    -276.380
  C      218.946     147.715    -277.281
  O      219.763     147.815    -276.129
  O      221.429     148.521    -277.840
  O      222.155     148.623    -275.380
  H      221.282     149.481    -277.782
  H      217.926     147.483    -276.966
  H      219.302     146.915    -277.937
  H      218.942     148.666    -277.816
  H      216.249     146.595    -280.422
  H      216.100     144.854    -280.437
  H      217.609     145.606    -280.896

 3  4  5  6  7  8  9  10  11  12  13  21  23  27  28  29  30  32 0
 6-311+G(2d,p)
 ****
 34  35 0
 6-311+G(2d,p)
 ****
 1  2  14  15  16  17  18  19  20  22  24  25  26 0
 3-21G
 ****
 31  33  36  37  38  39  40  41  42  43  44  45  46 0
 3-21G
 ****


