%nproc=1
%NoSave
%Mem=1900MB
#P OB98/GEN NMR

erre ene a

0 1
  C     -202.678      24.031     -56.498
  O     -201.771      25.002     -57.041
  P     -200.891      24.744     -58.360
  C     -201.698      26.779     -59.720
  O     -200.596      26.146     -59.086
  C     -201.353      28.202     -60.175
  O     -201.242      29.085     -59.017
  C     -200.038      28.318     -60.966
  O     -200.259      29.282     -61.999
  C     -199.077      28.843     -59.907
  O     -197.905      29.428     -60.442
  C     -200.006      29.817     -59.176
  N     -199.522      30.296     -57.886
  C     -198.851      31.530     -57.859
  O     -198.628      32.160     -58.890
  N     -198.427      32.016     -56.645
  C     -198.637      31.341     -55.560
  N     -198.199      31.886     -54.390
  C     -199.317      30.032     -55.543
  C     -199.728      29.579     -56.728
  O     -201.472      23.712     -59.275
  O     -199.453      24.277     -57.831
  H     -199.087      23.609     -58.441
  H     -198.171      30.206     -60.968
  H     -199.478      29.507     -54.617
  H     -200.265      28.635     -56.796
  H     -200.222      30.669     -59.826
  H     -198.773      28.010     -59.267
  H     -199.719      27.378     -61.428
  H     -202.192      28.579     -60.776
  H     -197.744      32.792     -54.443
  H     -202.530      26.826     -59.011
  H     -198.319      31.448     -53.491
  H     -202.016      26.172     -60.579
  P     -200.141      28.848     -63.534
  C     -202.524      29.708     -64.146
  O     -201.133      29.779     -64.384
  O     -200.926      27.446     -63.541
  O     -198.758      28.664     -64.067
  H     -200.594      26.898     -64.278
  H     -202.926      30.723     -64.108
  H     -202.762      29.202     -63.209
  H     -203.001      29.170     -64.974
  H     -203.146      24.431     -55.623
  H     -202.138      23.144     -56.240
  H     -203.425      23.795     -57.226

 3  4  5  6  7  8  9  10  11  12  13  24  27  28  29  30  32 0
 6-311+G(2d,p)
 ****
 34  35 0
 6-311+G(2d,p)
 ****
 1  2  14  15  16  17  18  19  20  21  22  23  25  26 0
 3-21G
 ****
 31  33  36  37  38  39  40  41  42  43  44  45  46 0
 3-21G
 ****


