%nproc=1
%NoSave
%Mem=1900MB
#P OB98/GEN NMR

erre ene a

0 1
  C     -892.806      87.817    -523.409
  O     -893.359      86.577    -523.870
  P     -892.661      85.146    -523.614
  C     -894.716      84.189    -522.362
  O     -893.825      84.039    -523.461
  C     -896.096      83.588    -522.696
  O     -896.829      84.498    -523.563
  C     -896.075      82.287    -523.488
  O     -895.683      81.173    -522.678
  C     -897.505      82.222    -524.006
  O     -898.393      81.647    -523.021
  C     -897.842      83.712    -524.217
  N     -897.955      84.068    -525.631
  C     -899.140      83.710    -526.266
  O     -900.000      83.058    -525.683
  N     -899.313      84.106    -527.586
  C     -898.337      84.699    -528.211
  N     -898.582      85.065    -529.499
  C     -897.015      84.961    -527.595
  C     -896.890      84.621    -526.325
  O     -891.677      85.145    -522.483
  O     -891.940      84.779    -524.995
  H     -891.192      84.186    -524.824
  H     -898.282      82.162    -522.200
  H     -896.225      85.403    -528.188
  H     -895.964      84.794    -525.803
  H     -898.795      83.958    -523.700
  H     -897.587      81.604    -524.898
  H     -895.363      82.393    -524.332
  H     -896.657      83.468    -521.755
  H     -899.500      84.875    -529.884
  H     -894.830      85.255    -522.135
  H     -897.894      85.552    -530.089
  H     -894.284      83.702    -521.472
  P     -895.516      79.773    -523.429
  C     -893.015      79.496    -522.738
  O     -894.339      78.966    -522.691
  O     -894.891      80.143    -524.847
  O     -896.800      78.990    -523.572
  H     -895.300      79.591    -525.531
  H     -892.466      79.157    -521.869
  H     -893.027      80.583    -522.787
  H     -892.522      79.096    -523.641
  H     -893.447      88.623    -523.699
  H     -891.837      87.958    -523.841
  H     -892.721      87.795    -522.343

 3  4  5  6  7  8  9  10  11  12  13  24  27  28  29  30  32 0
 6-311+G(2d,p)
 ****
 34  35 0
 6-311+G(2d,p)
 ****
 1  2  14  15  16  17  18  19  20  21  22  23  25  26 0
 3-21G
 ****
 31  33  36  37  38  39  40  41  42  43  44  45  46 0
 3-21G
 ****


