%nproc=1
%NoSave
%Mem=1900MB
#P OB98/GEN NMR

erre ene a

0 1
  C      294.771    -206.538     -28.061
  O      293.576    -206.586     -28.812
  H      295.071    -207.562     -27.818
  H      294.605    -205.997     -27.127
  H      295.573    -206.063     -28.633
  P      292.986    -205.226     -29.419
  C      291.099    -204.833     -27.700
  O      292.357    -204.391     -28.199
  C      290.250    -203.643     -27.243
  O      288.850    -204.028     -27.295
  C      290.554    -203.180     -25.817
  O      290.457    -201.757     -25.754
  C      289.447    -203.809     -24.996
  O      289.175    -203.079     -23.800
  C      288.285    -203.814     -25.988
  N      283.888    -204.751     -23.674
  C      284.550    -203.555     -23.881
  N      283.967    -202.444     -23.379
  N      285.687    -203.455     -24.518
  C      286.147    -204.644     -24.982
  C      285.585    -205.893     -24.846
  C      284.337    -205.990     -24.121
  O      283.716    -207.022     -23.893
  N      286.365    -206.855     -25.442
  C      287.389    -206.190     -25.936
  N      287.312    -204.848     -25.676
  O      292.071    -205.403     -30.590
  O      294.279    -204.373     -29.810
  H      288.843    -202.199     -24.071
  H      294.418    -204.372     -30.777
  H      283.023    -204.770     -23.168
  H      288.212    -206.627     -26.484
  H      287.743    -202.855     -25.997
  H      289.730    -204.833     -24.716
  H      283.079    -202.445     -22.900
  H      291.546    -203.492     -25.484
  H      284.416    -201.552     -23.540
  H      290.383    -202.825     -27.960
  H      291.285    -205.502     -26.852
  H      290.577    -205.392     -28.485
  P      291.780    -200.894     -25.472
  C      291.672    -201.038     -22.906
  O      292.414    -201.365     -24.073
  O      291.629    -199.418     -25.627
  O      292.819    -201.481     -26.545
  H      293.401    -200.756     -26.847
  H      292.189    -201.400     -22.042
  H      290.705    -201.492     -22.959
  H      291.564    -199.976     -22.838

 6  7  8  9  10  11  12  13  14  15  26  29  33  34 0
 6-311+G(2d,p)
 ****
 36  38  39  40  41 0
 6-311+G(2d,p)
 ****
 1  2  3  4  5  16  17  18  19  20  21  22  23  24  25 0
 3-21G
 ****
 27  28  30  31  32  35  37  42  43  44  45  46  47 0
 3-21G
 ****
 48  49 0
 3-21G
 ****


