%nproc=1
%NoSave
%Mem=1900MB
#P OB98/GEN NMR

erre ene a

0 1
  C     -401.978    -494.996     114.856
  O     -402.189    -493.601     114.831
  H     -401.170    -495.215     115.563
  H     -401.678    -495.360     113.868
  H     -402.879    -495.518     115.191
  P     -403.327    -493.018     113.863
  C     -403.540    -492.866     111.284
  O     -402.700    -493.165     112.384
  C     -402.966    -493.475     110.005
  O     -402.698    -494.885     110.169
  C     -403.885    -493.403     108.790
  O     -403.992    -492.102     108.224
  C     -403.170    -494.371     107.866
  O     -402.004    -493.751     107.315
  C     -402.801    -495.505     108.851
  N     -403.786    -496.584     108.874
  C     -403.494    -497.721     108.116
  O     -402.447    -497.783     107.460
  N     -404.395    -498.755     108.080
  C     -405.517    -498.649     108.729
  N     -406.386    -499.705     108.660
  C     -405.881    -497.473     109.528
  C     -404.981    -496.480     109.558
  O     -403.846    -491.660     114.206
  O     -404.460    -494.151     113.841
  H     -401.565    -494.420     106.757
  H     -405.196    -493.831     113.261
  H     -406.840    -497.418     110.030
  H     -405.181    -495.579     110.123
  H     -401.819    -495.925     108.607
  H     -403.790    -494.699     107.021
  H     -404.879    -493.804     109.024
  H     -402.002    -492.982     109.811
  H     -406.104    -500.501     108.102
  H     -403.620    -491.777     111.198
  H     -407.305    -499.684     109.067
  H     -404.530    -493.287     111.452
  P     -405.075    -491.905     107.058
  C     -405.100    -492.725     104.581
  O     -404.344    -492.282     105.691
  O     -405.247    -490.314     106.992
  O     -406.384    -492.604     107.276
  H     -406.040    -490.025     107.484
  H     -404.444    -492.929     103.761
  H     -405.798    -491.965     104.299
  H     -405.630    -493.616     104.844

 6  7  8  9  10  11  12  13  14  15  16  26  30  31  32  33  35 0
 6-311+G(2d,p)
 ****
 37  38 0
 6-311+G(2d,p)
 ****
 1  2  3  4  5  17  18  19  20  21  22  23  24  25 0
 3-21G
 ****
 27  28  29  34  36  39  40  41  42  43  44  45  46 0
 3-21G
 ****


