%nproc=1
%NoSave
%Mem=1900MB
#P OB98/GEN NMR

erre ene a

0 1
  C     -161.922     104.910    -296.873
  O     -161.999     105.730    -295.714
  P     -160.897     106.887    -295.546
  C     -159.478     105.738    -293.698
  O     -159.560     106.143    -295.060
  C     -158.055     105.912    -293.174
  O     -157.124     105.191    -294.009
  C     -157.557     107.350    -293.152
  O     -158.008     108.056    -292.004
  C     -156.055     107.133    -293.085
  O     -155.667     106.814    -291.735
  C     -155.865     105.916    -293.997
  N     -152.564     105.016    -297.794
  C     -152.621     104.558    -296.526
  N     -153.529     104.850    -295.570
  C     -154.419     105.750    -296.025
  C     -154.459     106.336    -297.277
  C     -153.481     105.927    -298.197
  N     -153.437     106.379    -299.497
  N     -155.520     107.212    -297.368
  C     -156.115     107.152    -296.194
  N     -155.493     106.271    -295.350
  O     -161.385     107.665    -294.231
  O     -160.754     107.798    -296.718
  H     -155.955     107.563    -291.172
  H     -161.032     108.575    -294.233
  H     -151.846     103.850    -296.247
  H     -156.997     107.713    -295.918
  H     -155.104     105.226    -293.614
  H     -155.484     108.023    -293.378
  H     -157.814     107.874    -294.082
  H     -158.010     105.472    -292.168
  H     -159.762     104.689    -293.618
  H     -152.824     105.902    -300.141
  H     -154.236     106.897    -299.849
  H     -160.177     106.339    -293.105
  P     -158.697     109.484    -292.261
  C     -156.902     110.753    -290.875
  O     -157.515     110.554    -292.137
  O     -159.571     109.708    -290.936
  O     -159.524     109.546    -293.502
  H     -160.318     110.302    -291.114
  H     -155.947     111.260    -291.027
  H     -156.718     109.801    -290.371
  H     -157.541     111.385    -290.253
  H     -162.712     104.189    -296.853
  H     -160.979     104.405    -296.891
  H     -162.017     105.519    -297.748

 3  4  5  6  7  8  9  10  11  12  22  25  29  30  31  32 0
 6-311+G(2d,p)
 ****
 33  36  37 0
 6-311+G(2d,p)
 ****
 1  2  13  14  15  16  17  18  19  20  21  23  24  26 0
 3-21G
 ****
 27  28  34  35  38  39  40  41  42  43  44  45  46  47  48 0
 3-21G
 ****


