%nproc=1
%NoSave
%Mem=1900MB
#P OB98/GEN NMR

erre ene a

0 1
  C      157.575    -248.287    -341.170
  O      158.872    -247.690    -341.220
  P      159.679    -247.443    -339.859
  C      161.620    -249.026    -340.523
  O      160.614    -248.713    -339.561
  C      162.694    -249.906    -339.882
  O      163.338    -249.241    -338.771
  C      162.136    -251.195    -339.286
  O      161.659    -252.164    -340.205
  C      163.241    -251.620    -338.339
  O      164.277    -252.326    -339.018
  C      163.758    -250.250    -337.832
  N      163.299    -249.938    -336.477
  C      164.263    -249.998    -335.472
  O      165.430    -250.331    -335.674
  N      163.822    -249.692    -334.211
  C      162.541    -249.379    -333.857
  O      162.201    -249.136    -332.703
  C      161.563    -249.363    -334.954
  C      161.975    -249.640    -336.194
  O      158.868    -246.966    -338.702
  O      160.749    -246.325    -340.287
  H      165.091    -252.229    -338.494
  H      160.817    -245.684    -339.549
  H      164.511    -249.721    -333.473
  H      160.540    -249.118    -334.709
  H      161.272    -249.622    -337.014
  H      164.855    -250.237    -337.819
  H      162.868    -252.287    -337.550
  H      161.272    -250.922    -338.665
  H      163.467    -250.112    -340.631
  H      162.065    -248.102    -340.904
  H      161.149    -249.522    -341.379
  P      160.160    -252.733    -340.174
  C      159.255    -251.630    -342.339
  O      159.210    -251.694    -340.932
  O      159.666    -253.310    -338.891
  O      160.259    -253.926    -341.254
  H      159.656    -254.636    -340.979
  H      158.558    -250.853    -342.682
  H      158.957    -252.581    -342.776
  H      160.263    -251.360    -342.671
  H      157.185    -248.376    -342.162
  H      156.922    -247.674    -340.584
  H      157.646    -249.258    -340.726

 3  4  5  6  7  8  9  10  11  12  13  23  28  29  30  31  32 0
 6-311+G(2d,p)
 ****
 33  34 0
 6-311+G(2d,p)
 ****
 1  2  14  15  16  17  18  19  20  21  22  24  25  26  27 0
 3-21G
 ****
 35  36  37  38  39  40  41  42  43  44  45 0
 3-21G
 ****


