%nproc=1
%NoSave
%Mem=1900MB
#P OB98/GEN NMR

erre ene a

0 1
  C      563.028     351.268    -113.838
  O      562.612     350.699    -112.611
  P      561.397     351.430    -111.849
  C      559.166     350.570    -110.796
  O      560.241     350.328    -111.686
  C      558.690     349.250    -110.184
  O      558.047     348.434    -111.195
  C      559.816     348.389    -109.595
  O      560.149     348.839    -108.299
  C      559.187     347.002    -109.629
  O      558.314     346.809    -108.497
  C      558.390     347.038    -110.943
  N      559.909     342.786    -113.216
  C      559.335     342.970    -111.974
  N      559.099     341.856    -111.239
  N      559.028     344.146    -111.480
  C      559.330     345.165    -112.317
  C      559.915     345.106    -113.563
  C      560.198     343.812    -114.108
  O      560.614     343.582    -115.244
  N      560.093     346.360    -114.093
  C      559.600     347.171    -113.182
  N      559.104     346.503    -112.082
  O      560.827     352.437    -112.958
  O      561.770     352.123    -110.574
  H      558.860     346.714    -107.683
  H      561.171     353.338    -112.819
  H      560.104     341.850    -113.553
  H      559.553     348.251    -113.266
  H      557.446     346.481    -110.865
  H      559.935     346.207    -109.582
  H      559.329     340.918    -111.543
  H      560.691     348.414    -110.258
  H      558.686     341.974    -110.330
  H      557.947     349.481    -109.417
  H      558.332     351.032    -111.346
  H      559.492     351.261    -110.005
  P      561.298     348.025    -107.509
  C      563.022     348.590    -105.648
  O      562.061     349.075    -106.558
  O      562.366     347.695    -108.658
  O      560.814     346.793    -106.828
  H      562.754     346.811    -108.488
  H      563.778     349.361    -105.493
  H      563.504     347.679    -106.013
  H      562.530     348.372    -104.696
  H      563.836     350.694    -114.241
  H      563.353     352.274    -113.673
  H      562.210     351.266    -114.528

 3  4  5  6  7  8  9  10  11  12  23  26  30  31 0
 6-311+G(2d,p)
 ****
 33  35  36  37  38 0
 6-311+G(2d,p)
 ****
 1  2  13  14  15  16  17  18  19  20  21  22  24  25 0
 3-21G
 ****
 27  28  29  32  34  39  40  41  42  43  44  45  46  47  48  49 0
 3-21G
 ****


