%nproc=1
%NoSave
%Mem=1900MB
#P OB98/GEN NMR

erre ene a

0 1
  C      -27.683     202.041    -347.026
  O      -26.924     201.451    -345.989
  H      -27.947     203.060    -346.730
  H      -28.604     201.478    -347.197
  H      -27.095     202.085    -347.948
  P      -26.476     199.922    -346.145
  C      -23.976     200.559    -345.955
  O      -24.990     199.943    -346.741
  C      -22.614     200.419    -346.631
  O      -22.241     199.031    -346.728
  C      -22.566     200.963    -348.055
  O      -22.528     202.375    -348.048
  C      -21.311     200.277    -348.569
  O      -20.129     200.942    -348.099
  C      -21.445     198.876    -347.925
  N      -22.033     197.878    -348.813
  C      -21.740     196.543    -348.519
  O      -21.015     196.261    -347.564
  N      -22.266     195.565    -349.326
  C      -23.046     195.882    -350.309
  N      -23.541     194.868    -351.067
  C      -23.407     197.277    -350.633
  C      -22.861     198.215    -349.861
  O      -27.426     199.027    -346.881
  O      -26.254     199.432    -344.637
  H      -20.145     200.864    -347.126
  H      -27.061     199.005    -344.294
  H      -24.070     197.496    -351.457
  H      -23.074     199.264    -350.031
  H      -20.462     198.507    -347.606
  H      -21.261     200.272    -349.660
  H      -23.421     200.593    -348.628
  H      -21.868     200.917    -345.994
  H      -23.280     193.923    -350.793
  H      -23.969     200.049    -344.985
  H      -24.275     194.982    -351.748
  H      -24.206     201.617    -345.785
  P      -23.291     203.239    -349.164
  C      -25.772     203.282    -348.490
  O      -24.772     202.623    -349.251
  O      -22.583     203.358    -350.467
  O      -23.543     204.644    -348.441
  H      -22.712     205.179    -348.428
  H      -26.710     202.785    -348.627
  H      -25.856     204.298    -348.815
  H      -25.504     203.260    -347.454

 6  7  8  9  10  11  12  13  14  15  16  26  30  31  32  33  35 0
 6-311+G(2d,p)
 ****
 37  38 0
 6-311+G(2d,p)
 ****
 1  2  3  4  5  17  18  19  20  21  22  23  24  25 0
 3-21G
 ****
 27  28  29  34  36  39  40  41  42  43  44  45  46 0
 3-21G
 ****


