%nproc=1
%NoSave
%Mem=1900MB
#P OB98/GEN NMR

erre ene a

0 1
  C     -323.097      42.484    -270.378
  O     -324.508      42.533    -270.272
  H     -322.751      43.406    -270.854
  H     -322.801      41.635    -270.997
  H     -322.643      42.403    -269.388
  P     -325.209      41.353    -269.437
  C     -327.530      41.508    -270.661
  O     -326.779      41.677    -269.472
  C     -329.027      41.651    -270.382
  O     -329.464      40.514    -269.591
  C     -329.391      42.923    -269.612
  O     -330.656      43.389    -270.083
  C     -329.533      42.435    -268.179
  O     -330.353      43.302    -267.398
  C     -330.096      41.021    -268.397
  N     -329.865      40.147    -267.255
  C     -330.852      40.137    -266.257
  O     -331.850      40.851    -266.371
  N     -330.668      39.351    -265.150
  C     -329.568      38.683    -265.009
  N     -329.434      37.946    -263.873
  C     -328.475      38.704    -266.007
  C     -328.698      39.439    -267.094
  O     -324.779      41.712    -267.941
  O     -324.833      39.979    -269.878
  H     -330.096      44.229    -267.586
  H     -324.867      42.657    -267.727
  H     -327.571      38.136    -265.839
  H     -327.957      39.502    -267.884
  H     -331.178      41.065    -268.586
  H     -328.549      42.383    -267.699
  H     -328.644      43.710    -269.722
  H     -329.563      41.600    -271.336
  H     -330.194      37.980    -263.207
  H     -327.332      40.522    -271.099
  H     -328.597      37.436    -263.632
  H     -327.199      42.268    -271.379
  P     -330.727      44.719    -270.972
  C     -332.933      45.672    -270.005
  O     -332.262      45.156    -271.154
  O     -329.918      44.702    -272.226
  O     -330.166      45.845    -269.966
  H     -329.592      46.442    -270.482
  H     -333.941      45.922    -270.263
  H     -332.425      46.548    -269.659
  H     -332.936      44.933    -269.232

 6  7  8  9  10  11  12  13  14  15  16  26  30  31  32  33  35 0
 6-311+G(2d,p)
 ****
 37  38 0
 6-311+G(2d,p)
 ****
 1  2  3  4  5  17  18  19  20  21  22  23  24  25 0
 3-21G
 ****
 27  28  29  34  36  39  40  41  42  43  44  45  46 0
 3-21G
 ****


