%nproc=1
%NoSave
%Mem=1900MB
#P OB98/GEN NMR

erre ene a

0 1
  C        6.857     119.304    -248.625
  O        7.459     119.873    -247.477
  P        6.947     119.487    -246.013
  C        6.153     121.886    -245.588
  O        6.977     120.825    -245.121
  C        6.382     123.165    -244.785
  O        5.983     122.935    -243.403
  C        7.838     123.656    -244.762
  O        7.789     125.086    -244.720
  C        8.349     123.127    -243.429
  O        9.495     123.824    -242.959
  C        7.100     123.302    -242.572
  N        8.872     122.863    -237.794
  C        9.079     123.798    -238.747
  N        8.591     123.831    -240.007
  C        7.814     122.762    -240.240
  C        7.533     121.713    -239.380
  C        8.088     121.799    -238.089
  N        7.860     120.875    -237.093
  N        6.742     120.769    -240.006
  C        6.545     121.244    -241.219
  N        7.125     122.475    -241.387
  O        7.625     118.312    -245.390
  O        5.382     119.217    -246.203
  H        9.285     124.776    -242.922
  H        5.206     118.257    -246.162
  H        9.716     124.630    -238.465
  H        6.008     120.738    -242.011
  H        6.959     124.343    -242.254
  H        8.614     122.069    -243.534
  H        8.436     123.312    -245.609
  H        5.722     123.941    -245.183
  H        5.110     121.573    -245.479
  H        8.195     121.099    -236.172
  H        7.078     120.227    -237.196
  H        6.346     122.066    -246.652
  P        7.736     125.921    -246.088
  C       10.269     126.304    -245.985
  O        8.991     126.914    -246.061
  O        6.424     126.553    -246.402
  O        8.155     124.840    -247.202
  H        7.893     125.163    -248.082
  H       10.475     126.026    -244.942
  H       11.026     127.018    -246.320
  H       10.316     125.410    -246.610
  H        7.335     119.684    -249.504
  H        5.818     119.558    -248.646
  H        6.963     118.240    -248.593

 3  4  5  6  7  8  9  10  11  12  22  25  29  30  31  32 0
 6-311+G(2d,p)
 ****
 33  36  37 0
 6-311+G(2d,p)
 ****
 1  2  13  14  15  16  17  18  19  20  21  23  24  26 0
 3-21G
 ****
 27  28  34  35  38  39  40  41  42  43  44  45  46  47  48 0
 3-21G
 ****


