%nproc=1
%NoSave
%Mem=1900MB
#P OB98/GEN NMR

erre ene a

0 1
  C     -143.350     -70.776     -95.031
  O     -144.566     -71.088     -94.382
  P     -145.909     -70.280     -94.705
  C     -147.028     -72.049     -96.185
  O     -146.439     -70.756     -96.140
  C     -148.538     -71.982     -95.963
  O     -149.115     -71.003     -96.872
  C     -149.266     -73.317     -96.189
  O     -150.303     -73.403     -95.202
  C     -149.860     -73.156     -97.573
  O     -150.962     -74.024     -97.795
  C     -150.194     -71.660     -97.569
  N     -150.359     -71.124     -98.912
  C     -151.604     -70.571     -99.224
  O     -152.540     -70.667     -98.428
  N     -151.757     -69.935    -100.431
  C     -150.815     -70.018    -101.319
  N     -150.978     -69.319    -102.476
  C     -149.586     -70.810    -101.114
  C     -149.406     -71.293     -99.885
  O     -145.811     -68.799     -94.537
  O     -146.991     -70.899     -93.697
  H     -147.412     -70.172     -93.194
  H     -150.636     -74.950     -97.812
  H     -148.887     -70.953    -101.923
  H     -148.522     -71.866     -99.628
  H     -151.111     -71.472     -96.999
  H     -149.093     -73.375     -98.328
  H     -148.602     -74.181     -96.091
  H     -148.719     -71.621     -94.945
  H     -151.812     -68.754    -102.565
  H     -146.579     -72.654     -95.394
  H     -150.188     -69.063    -103.070
  H     -146.799     -72.528     -97.143
  P     -150.891     -74.856     -94.840
  C     -149.027     -75.371     -93.111
  O     -149.678     -75.757     -94.301
  O     -151.141     -75.474     -96.303
  O     -152.159     -74.885     -94.056
  H     -151.838     -76.153     -96.246
  H     -148.190     -76.053     -92.932
  H     -149.714     -75.435     -92.263
  H     -148.634     -74.351     -93.194
  H     -142.579     -71.428     -94.676
  H     -143.084     -69.761     -94.821
  H     -143.466     -70.903     -96.087

 3  4  5  6  7  8  9  10  11  12  13  24  27  28  29  30  32 0
 6-311+G(2d,p)
 ****
 34  35 0
 6-311+G(2d,p)
 ****
 1  2  14  15  16  17  18  19  20  21  22  23  25  26 0
 3-21G
 ****
 31  33  36  37  38  39  40  41  42  43  44  45  46 0
 3-21G
 ****


