%nproc=1
%NoSave
%Mem=1900MB
#P OB98/GEN NMR

erre ene a

0 1
  C     -461.637    -251.877     497.807
  O     -461.550    -253.254     497.421
  P     -462.645    -254.260     498.029
  C     -462.024    -254.555     500.556
  O     -462.794    -253.868     499.579
  C     -462.039    -253.805     501.896
  O     -463.414    -253.678     502.372
  C     -461.217    -254.473     503.010
  O     -460.615    -253.413     503.771
  C     -462.277    -255.184     503.835
  O     -461.826    -255.440     505.164
  C     -463.437    -254.177     503.723
  N     -464.731    -254.774     504.056
  C     -465.229    -254.539     505.330
  O     -464.597    -253.926     506.190
  N     -466.457    -255.071     505.601
  C     -467.189    -255.859     504.767
  O     -468.291    -256.311     505.060
  C     -466.558    -256.172     503.468
  C     -465.387    -255.627     503.184
  O     -461.836    -255.639     498.046
  O     -463.918    -254.281     497.246
  H     -460.892    -255.537     498.262
  H     -462.508    -255.974     505.632
  H     -466.860    -254.877     506.512
  H     -467.091    -256.847     502.798
  H     -464.884    -255.850     502.242
  H     -463.274    -253.324     504.394
  H     -462.539    -256.132     503.368
  H     -460.442    -255.142     502.623
  H     -461.660    -252.788     501.711
  H     -460.984    -254.649     500.218
  H     -462.420    -255.583     500.675
  P     -459.063    -253.075     503.498
  C     -457.569    -254.733     504.883
  O     -458.251    -254.441     503.679
  O     -458.714    -252.276     504.854
  O     -458.790    -252.278     502.270
  H     -459.032    -252.724     505.648
  H     -457.287    -255.788     504.890
  H     -458.210    -254.533     505.749
  H     -456.656    -254.118     504.959
  H     -460.853    -251.324     497.333
  H     -461.538    -251.797     498.869
  H     -462.585    -251.482     497.507

 3  4  5  6  7  8  9  10  11  12  13  24  28  29  30  31  32 0
 6-311+G(2d,p)
 ****
 33  34 0
 6-311+G(2d,p)
 ****
 1  2  14  15  16  17  18  19  20  21  22  23  25  26  27 0
 3-21G
 ****
 35  36  37  38  39  40  41  42  43  44  45 0
 3-21G
 ****


