%nproc=1
%NoSave
%Mem=1900MB
#P OB98/GEN NMR

erre ene a

0 1
  C     -590.412    -271.629     -55.834
  O     -589.315    -272.494     -56.068
  H     -590.638    -271.091     -56.753
  H     -590.159    -270.907     -55.054
  H     -591.294    -272.211     -55.538
  P     -588.931    -273.516     -54.894
  C     -588.924    -275.706     -56.340
  O     -589.545    -274.926     -55.333
  C     -589.791    -275.765     -57.602
  O     -589.986    -274.411     -58.086
  C     -589.185    -276.591     -58.735
  O     -590.247    -277.253     -59.436
  C     -588.566    -275.536     -59.641
  O     -588.408    -276.015     -60.979
  C     -589.549    -274.368     -59.475
  N     -588.950    -273.084     -59.819
  C     -589.030    -272.700     -61.156
  O     -589.573    -273.432     -61.987
  N     -588.463    -271.512     -61.544
  C     -587.803    -270.798     -60.671
  N     -587.241    -269.637     -61.110
  C     -587.658    -271.199     -59.250
  C     -588.254    -272.332     -58.899
  O     -589.900    -273.031     -53.710
  O     -587.482    -273.531     -54.537
  H     -588.105    -275.264     -61.541
  H     -590.809    -272.848     -54.007
  H     -587.090    -270.573     -58.571
  H     -588.209    -272.691     -57.876
  H     -590.440    -274.524     -60.096
  H     -587.573    -275.261     -59.268
  H     -588.466    -277.329     -58.386
  H     -590.785    -276.143     -57.326
  H     -587.352    -269.422     -62.105
  H     -588.747    -276.728     -55.980
  H     -586.667    -269.047     -60.543
  H     -587.952    -275.253     -56.569
  P     -590.718    -278.697     -58.953
  C     -593.310    -278.514     -58.940
  O     -592.119    -278.571     -58.163
  O     -589.690    -279.533     -58.279
  O     -591.186    -279.393     -60.329
  H     -590.878    -280.318     -60.314
  H     -594.156    -278.432     -58.290
  H     -593.396    -279.405     -59.527
  H     -593.273    -277.663     -59.587

 6  7  8  9  10  11  12  13  14  15  16  26  30  31  32  33  35 0
 6-311+G(2d,p)
 ****
 37  38 0
 6-311+G(2d,p)
 ****
 1  2  3  4  5  17  18  19  20  21  22  23  24  25 0
 3-21G
 ****
 27  28  29  34  36  39  40  41  42  43  44  45  46 0
 3-21G
 ****


