%nproc=1
%NoSave
%Mem=1900MB
#P OB98/GEN NMR

erre ene a

0 1
  C      218.294     640.019     138.397
  O      218.976     641.157     137.902
  H      217.441     640.353     138.988
  H      218.964     639.432     139.033
  H      217.931     639.402     137.568
  P      220.161     640.889     136.853
  C      218.954     642.299     134.989
  O      219.498     641.056     135.399
  C      217.959     642.096     133.844
  O      217.095     640.982     134.165
  C      217.072     643.318     133.582
  O      216.834     643.409     132.174
  C      215.774     642.964     134.289
  O      214.660     643.679     133.763
  C      215.728     641.437     134.086
  N      214.880     640.768     135.069
  C      213.512     640.736     134.794
  O      213.066     641.264     133.779
  N      212.664     640.139     135.702
  C      213.135     639.685     136.814
  N      212.245     639.128     137.682
  C      214.571     639.735     137.169
  C      215.378     640.274     136.252
  O      220.375     639.308     136.996
  O      221.388     641.703     137.087
  H      214.643     643.547     132.789
  H      219.543     638.807     137.019
  H      214.917     639.343     138.113
  H      216.448     640.347     136.427
  H      215.357     641.198     133.081
  H      215.851     643.198     135.359
  H      217.507     644.246     133.942
  H      218.525     641.823     132.945
  H      211.271     639.134     137.411
  H      219.753     642.976     134.671
  H      212.494     638.790     138.598
  H      218.454     642.747     135.851
  P      217.824     644.270     131.263
  C      218.761     642.264     129.929
  O      219.053     643.357     130.794
  O      218.193     645.614     131.800
  O      216.986     644.439     129.895
  H      217.115     645.351     129.576
  H      219.666     641.742     129.696
  H      218.318     642.632     129.027
  H      218.080     641.597     130.415

 6  7  8  9  10  11  12  13  14  15  16  26  30  31  32  33  35 0
 6-311+G(2d,p)
 ****
 37  38 0
 6-311+G(2d,p)
 ****
 1  2  3  4  5  17  18  19  20  21  22  23  24  25 0
 3-21G
 ****
 27  28  29  34  36  39  40  41  42  43  44  45  46 0
 3-21G
 ****


