%nproc=1
%NoSave
%Mem=1900MB
#P OB98/GEN NMR

erre ene a

0 1
  C      336.997    -430.046    1076.557
  O      338.329    -430.349    1076.227
  H      336.371    -430.168    1075.673
  H      336.920    -428.993    1076.869
  H      336.623    -430.686    1077.340
  P      339.455    -430.203    1077.351
  C      340.458    -432.566    1077.026
  O      339.710    -431.697    1077.900
  C      339.553    -433.433    1076.184
  O      338.778    -432.610    1075.304
  C      340.327    -434.459    1075.311
  O      339.701    -435.735    1075.435
  C      340.113    -433.918    1073.908
  O      340.249    -434.922    1072.918
  C      338.734    -433.266    1074.041
  N      338.469    -432.361    1072.933
  C      338.045    -432.963    1071.742
  O      337.895    -434.197    1071.659
  N      337.798    -432.166    1070.652
  C      338.040    -430.919    1070.736
  N      337.791    -430.159    1069.590
  C      338.491    -430.240    1071.923
  C      338.703    -431.005    1072.997
  O      339.184    -429.185    1078.403
  O      340.809    -429.902    1076.536
  H      341.121    -435.392    1073.042
  H      341.461    -429.466    1077.138
  H      338.702    -429.155    1071.955
  H      339.050    -430.593    1073.971
  H      337.931    -434.047    1074.071
  H      340.878    -433.152    1073.693
  H      341.392    -434.543    1075.568
  H      338.858    -433.956    1076.856
  H      337.466    -430.688    1068.773
  H      341.144    -433.182    1077.671
  H      337.972    -429.172    1069.504
  H      341.082    -431.934    1076.401
  P      340.097    -436.576    1076.761
  C      337.880    -436.661    1078.133
  O      339.175    -436.072    1077.973
  O      341.568    -436.057    1077.115
  O      340.073    -438.062    1076.535
  H      342.218    -436.766    1076.940
  H      337.391    -436.223    1078.978
  H      337.984    -437.715    1078.287
  H      337.297    -436.485    1077.253

 6  7  8  9  10  11  12  13  14  15  16  26  30  31  32  33  35 0
 6-311+G(2d,p)
 ****
 37  38 0
 6-311+G(2d,p)
 ****
 1  2  3  4  5  17  18  19  20  21  22  23  24  25 0
 3-21G
 ****
 27  28  29  34  36  39  40  41  42  43  44  45  46 0
 3-21G
 ****


