%nproc=1
%NoSave
%Mem=1900MB
#P OB98/GEN NMR

erre ene a

0 1
  C      132.200     153.222    -140.254
  O      131.863     154.524    -140.706
  P      130.459     155.139    -140.230
  C      128.534     155.335    -142.014
  O      129.353     154.508    -141.204
  C      129.245     155.656    -143.330
  O      129.861     154.463    -143.859
  C      128.330     156.165    -144.437
  O      127.979     157.527    -144.244
  C      129.184     155.898    -145.672
  O      130.167     156.934    -145.833
  C      129.870     154.568    -145.299
  N      129.242     153.402    -145.919
  C      129.486     153.225    -147.279
  O      130.183     153.989    -147.943
  N      128.878     152.142    -147.856
  C      128.021     151.277    -147.239
  O      127.469     150.348    -147.814
  C      127.777     151.534    -145.811
  C      128.390     152.567    -145.228
  O      130.621     156.651    -140.722
  O      130.211     154.970    -138.769
  H      131.222     156.722    -141.485
  H      130.653     156.730    -146.657
  H      129.057     151.978    -148.836
  H      127.096     150.875    -145.290
  H      128.213     152.778    -144.179
  H      130.926     154.591    -145.596
  H      128.593     155.860    -146.591
  H      127.421     155.554    -144.479
  H      130.040     156.384    -143.122
  H      128.324     156.264    -141.475
  H      127.587     154.820    -142.205
  P      126.737     158.076    -145.110
  C      127.580     159.824    -146.860
  O      127.331     158.473    -146.543
  O      126.458     159.480    -144.393
  O      125.567     157.149    -145.133
  H      127.271     159.963    -144.178
  H      128.289     159.865    -147.692
  H      128.000     160.364    -146.008
  H      126.645     160.303    -147.171
  H      133.156     152.944    -140.647
  H      131.460     152.525    -140.589
  H      132.238     153.214    -139.185

 3  4  5  6  7  8  9  10  11  12  13  24  28  29  30  31  32 0
 6-311+G(2d,p)
 ****
 33  34 0
 6-311+G(2d,p)
 ****
 1  2  14  15  16  17  18  19  20  21  22  23  25  26  27 0
 3-21G
 ****
 35  36  37  38  39  40  41  42  43  44  45 0
 3-21G
 ****


