%nproc=1
%NoSave
%Mem=1900MB
#P OB98/GEN NMR

erre ene a

0 1
  C      133.261      44.124      56.571
  O      133.106      44.293      55.173
  P      132.142      45.428      54.591
  C      130.365      43.644      54.104
  O      130.630      44.895      54.725
  C      129.017      43.076      54.542
  O      129.048      42.841      55.978
  C      127.814      43.988      54.257
  O      126.707      43.129      53.961
  C      127.586      44.675      55.596
  O      126.273      45.198      55.730
  C      127.910      43.526      56.545
  N      126.346      43.664      61.414
  C      125.767      43.169      60.297
  N      126.237      43.194      59.032
  C      127.436      43.803      58.980
  C      128.132      44.382      60.029
  C      127.551      44.280      61.306
  N      128.141      44.744      62.457
  N      129.300      44.964      59.564
  C      129.301      44.738      58.267
  N      128.226      43.984      57.879
  O      132.501      45.937      53.234
  O      132.211      46.597      55.685
  H      126.151      45.496      56.652
  H      132.747      47.340      55.341
  H      124.808      42.685      60.439
  H      130.046      45.093      57.568
  H      127.085      42.806      56.622
  H      128.293      45.502      55.708
  H      127.981      44.703      53.441
  H      128.883      42.101      54.058
  H      131.160      42.949      54.389
  H      127.697      44.503      63.332
  H      129.135      44.965      62.444
  H      130.389      43.761      53.014
  P      125.546      43.632      52.974
  C      123.852      44.117      54.832
  O      124.656      44.672      53.807
  O      124.787      42.549      52.280
  O      126.327      44.570      51.930
  H      125.771      44.698      51.136
  H      122.943      43.703      54.392
  H      123.581      44.912      55.538
  H      124.386      43.332      55.369
  H      133.942      43.320      56.760
  H      132.312      43.898      57.010
  H      133.647      45.026      56.999

 3  4  5  6  7  8  9  10  11  12  22  25  29  30  31  32 0
 6-311+G(2d,p)
 ****
 33  36  37 0
 6-311+G(2d,p)
 ****
 1  2  13  14  15  16  17  18  19  20  21  23  24  26 0
 3-21G
 ****
 27  28  34  35  38  39  40  41  42  43  44  45  46  47  48 0
 3-21G
 ****


