%nproc=1
%NoSave
%Mem=1900MB
#P OB98/GEN NMR

erre ene a

0 1
  C     -299.786     239.173     623.664
  O     -299.228     240.469     623.489
  P     -298.239     241.013     624.636
  C     -297.281     242.827     623.040
  O     -297.931     242.545     624.272
  C     -297.164     244.340     622.844
  O     -298.463     244.929     622.613
  C     -296.591     245.083     624.045
  O     -295.179     245.022     624.098
  C     -297.050     246.507     623.756
  O     -296.177     247.114     622.791
  C     -298.442     246.277     623.140
  N     -301.228     249.640     625.693
  C     -300.358     249.835     624.639
  N     -300.154     251.116     624.255
  N     -299.731     248.868     624.019
  C     -300.034     247.636     624.521
  C     -300.890     247.320     625.557
  C     -301.545     248.404     626.243
  O     -302.298     248.306     627.208
  N     -300.932     245.967     625.765
  C     -300.110     245.472     624.867
  N     -299.510     246.448     624.111
  O     -296.857     240.268     624.312
  O     -298.707     240.756     626.030
  H     -296.038     246.451     622.079
  H     -296.266     240.312     625.094
  H     -301.674     250.427     626.138
  H     -299.917     244.405     624.726
  H     -298.634     246.955     622.307
  H     -297.038     247.141     624.639
  H     -300.547     251.914     624.725
  H     -297.048     244.746     624.982
  H     -299.465     251.292     623.531
  H     -296.546     244.518     621.950
  H     -297.850     242.400     622.218
  H     -296.286     242.370     623.049
  P     -294.482     245.552     625.450
  C     -293.008     243.412     625.559
  O     -293.050     244.819     625.500
  O     -295.325     244.827     626.596
  O     -294.474     247.035     625.601
  H     -295.297     245.343     627.434
  H     -291.990     243.081     625.320
  H     -293.702     242.964     624.839
  H     -293.263     243.064     626.567
  H     -300.419     238.942     622.833
  H     -300.360     239.151     624.567
  H     -298.999     238.451     623.724

 3  4  5  6  7  8  9  10  11  12  23  26  30  31 0
 6-311+G(2d,p)
 ****
 33  35  36  37  38 0
 6-311+G(2d,p)
 ****
 1  2  13  14  15  16  17  18  19  20  21  22  24  25 0
 3-21G
 ****
 27  28  29  32  34  39  40  41  42  43  44  45  46  47  48  49 0
 3-21G
 ****


