%nproc=1
%NoSave
%Mem=1900MB
#P OB98/GEN NMR

erre ene a

0 1
  C     -122.474     159.082      56.062
  O     -122.696     158.228      54.939
  P     -123.263     156.745      55.187
  C     -125.763     156.786      55.787
  O     -124.805     156.697      54.739
  C     -127.188     157.003      55.259
  O     -127.304     158.294      54.597
  C     -127.666     155.938      54.262
  O     -129.067     155.740      54.495
  C     -127.433     156.618      52.926
  O     -128.169     156.012      51.871
  C     -127.828     158.056      53.275
  N     -127.326     159.025      52.314
  C     -128.082     159.233      51.160
  O     -129.073     158.534      50.939
  N     -127.678     160.202      50.272
  C     -126.540     160.799      50.453
  N     -126.182     161.768      49.566
  C     -125.625     160.473      51.566
  C     -126.090     159.607      52.462
  O     -122.983     156.170      56.537
  O     -122.536     155.891      54.037
  H     -127.830     155.102      51.729
  H     -122.352     154.992      54.381
  H     -124.653     160.937      51.629
  H     -125.500     159.306      53.314
  H     -128.923     158.156      53.335
  H     -126.368     156.566      52.666
  H     -127.145     154.979      54.367
  H     -127.868     157.023      56.124
  H     -126.808     161.962      48.792
  H     -125.494     157.616      56.449
  H     -125.337     162.314      49.666
  H     -125.706     155.877      56.401
  P     -129.558     154.350      55.131
  C     -130.281     154.658      57.609
  O     -130.660     154.682      56.247
  O     -128.291     153.933      56.026
  O     -129.880     153.257      54.160
  H     -128.292     152.961      56.145
  H     -131.053     155.171      58.194
  H     -129.331     155.175      57.769
  H     -130.205     153.624      57.958
  H     -122.098     160.025      55.724
  H     -121.761     158.629      56.719
  H     -123.396     159.231      56.584

 3  4  5  6  7  8  9  10  11  12  13  23  27  28  29  30  32 0
 6-311+G(2d,p)
 ****
 34  35 0
 6-311+G(2d,p)
 ****
 1  2  14  15  16  17  18  19  20  21  22  24  25  26 0
 3-21G
 ****
 31  33  36  37  38  39  40  41  42  43  44  45  46 0
 3-21G
 ****


