%nproc=1
%NoSave
%Mem=1900MB
#P OB98/GEN NMR

erre ene a

0 1
  C      -25.218     -66.679     162.943
  O      -25.953     -65.796     162.111
  P      -27.410     -66.281     161.637
  C      -27.526     -66.645     159.061
  O      -27.203     -67.188     160.335
  C      -26.314     -65.906     158.481
  O      -25.133     -66.731     158.597
  C      -26.433     -65.563     157.001
  O      -27.300     -64.457     156.799
  C      -24.965     -65.298     156.664
  O      -24.591     -63.984     157.105
  C      -24.243     -66.371     157.498
  N      -20.622     -68.769     154.792
  C      -20.642     -67.563     155.396
  N      -21.647     -66.980     156.075
  C      -22.723     -67.790     156.116
  C      -22.858     -69.035     155.525
  C      -21.740     -69.533     154.838
  N      -21.725     -70.768     154.219
  N      -24.119     -69.555     155.757
  C      -24.729     -68.642     156.480
  N      -23.928     -67.560     156.733
  O      -28.068     -64.943     161.052
  O      -28.252     -66.898     162.719
  H      -24.542     -64.010     158.076
  H      -29.030     -64.925     161.230
  H      -19.724     -66.984     155.322
  H      -25.747     -68.717     156.843
  H      -23.307     -66.002     157.941
  H      -24.757     -65.357     155.587
  H      -26.799     -66.430     156.436
  H      -26.152     -64.991     159.076
  H      -28.354     -65.938     159.163
  H      -20.935     -70.982     153.628
  H      -22.603     -71.267     154.137
  H      -27.846     -67.457     158.393
  P      -27.743     -64.141     155.292
  C      -26.660     -61.923     154.558
  O      -26.498     -63.327     154.682
  O      -28.838     -62.993     155.506
  O      -28.196     -65.331     154.502
  H      -28.519     -62.296     156.106
  H      -25.727     -61.489     154.183
  H      -26.901     -61.481     155.529
  H      -27.467     -61.711     153.842
  H      -24.273     -66.238     163.184
  H      -25.059     -67.604     162.429
  H      -25.767     -66.861     163.843

 3  4  5  6  7  8  9  10  11  12  22  25  29  30  31  32 0
 6-311+G(2d,p)
 ****
 33  36  37 0
 6-311+G(2d,p)
 ****
 1  2  13  14  15  16  17  18  19  20  21  23  24  26 0
 3-21G
 ****
 27  28  34  35  38  39  40  41  42  43  44  45  46  47  48 0
 3-21G
 ****


