%nproc=1
%NoSave
%Mem=1900MB
#P OB98/GEN NMR

erre ene a

0 1
  C      -20.063    -270.488    -344.370
  O      -19.985    -269.765    -345.581
  H      -19.076    -270.902    -344.148
  H      -20.777    -271.304    -344.466
  H      -20.357    -269.826    -343.549
  P      -21.340    -269.055    -346.077
  C      -22.082    -267.954    -348.320
  O      -21.156    -268.789    -347.647
  C      -21.496    -267.462    -349.649
  O      -20.486    -266.444    -349.367
  C      -20.801    -268.558    -350.469
  O      -20.909    -268.209    -351.859
  C      -19.357    -268.418    -350.013
  O      -18.485    -269.113    -350.879
  C      -19.250    -266.889    -349.975
  N      -14.979    -264.088    -350.202
  C      -15.943    -264.334    -351.112
  N      -17.060    -265.077    -350.977
  C      -17.139    -265.593    -349.734
  C      -16.246    -265.425    -348.695
  C      -15.109    -264.631    -348.965
  N      -14.124    -264.389    -348.035
  N      -16.665    -266.105    -347.559
  C      -17.798    -266.668    -347.917
  N      -18.125    -266.397    -349.219
  O      -21.244    -267.591    -345.427
  O      -22.605    -269.749    -345.699
  H      -18.816    -269.090    -351.802
  H      -21.736    -267.571    -344.585
  H      -15.795    -263.867    -352.087
  H      -18.419    -267.296    -347.281
  H      -19.199    -266.462    -350.982
  H      -19.219    -268.844    -349.011
  H      -21.226    -269.553    -350.314
  H      -22.288    -266.969    -350.234
  H      -22.311    -267.095    -347.671
  H      -23.010    -268.510    -348.514
  H      -13.332    -263.823    -348.317
  H      -14.199    -264.800    -347.116
  P      -21.962    -268.991    -352.793
  C      -23.496    -268.360    -354.821
  O      -22.362    -268.040    -354.022
  O      -23.289    -268.959    -351.894
  O      -21.595    -270.397    -353.141
  H      -23.843    -269.724    -352.110
  H      -23.612    -267.623    -355.588
  H      -24.372    -268.376    -354.207
  H      -23.357    -269.322    -355.269

 6  7  8  9  10  11  12  13  14  15  25  28  32  33  34  35 0
 6-311+G(2d,p)
 ****
 36  37  40 0
 6-311+G(2d,p)
 ****
 1  2  3  4  5  16  17  18  19  20  21  22  23  24 0
 3-21G
 ****
 26  27  29  30  31  38  39 41  42  43  44  45  46  47  48 0
 3-21G
 ****


