%nproc=1
%NoSave
%Mem=1900MB
#P OB98/GEN NMR

erre ene a

0 1
  C      -41.765     -30.167      20.669
  O      -41.381     -31.140      19.719
  H      -40.867     -29.669      21.044
  H      -42.275     -30.648      21.507
  H      -42.419     -29.419      20.213
  P      -42.562     -31.846      18.895
  C      -41.588     -31.268      16.560
  O      -42.650     -31.087      17.484
  C      -41.478     -30.056      15.639
  O      -41.247     -28.857      16.411
  C      -40.338     -30.138      14.629
  O      -40.699     -30.901      13.486
  C      -40.171     -28.669      14.278
  O      -41.217     -28.263      13.373
  C      -40.360     -27.996      15.644
  N      -36.552     -24.797      16.623
  C      -37.643     -24.649      15.788
  N      -37.727     -23.486      15.108
  N      -38.567     -25.560      15.627
  C      -38.347     -26.677      16.361
  C      -37.308     -26.940      17.225
  C      -36.298     -25.921      17.398
  O      -35.325     -25.991      18.143
  N      -37.432     -28.178      17.797
  C      -38.533     -28.672      17.267
  N      -39.123     -27.803      16.384
  O      -43.887     -31.362      19.656
  O      -42.492     -33.334      18.823
  H      -40.967     -28.590      12.490
  H      -44.539     -32.089      19.646
  H      -35.864     -24.069      16.701
  H      -38.945     -29.647      17.490
  H      -40.841     -27.015      15.563
  H      -39.221     -28.459      13.784
  H      -37.024     -22.764      15.147
  H      -39.417     -30.509      15.092
  H      -38.534     -23.341      14.515
  H      -42.441     -29.935      15.126
  H      -41.781     -32.162      15.959
  H      -40.654     -31.406      17.114
  P      -39.667     -32.029      12.990
  C      -41.384     -33.910      12.481
  O      -40.359     -33.432      13.345
  O      -38.478     -31.923      14.056
  O      -39.184     -31.869      11.590
  H      -37.654     -32.279      13.672
  H      -41.747     -34.849      12.844
  H      -40.989     -34.037      11.495
  H      -42.187     -33.203      12.455

 6  7  8  9  10  11  12  13  14  15  26  29  33  34 0
 6-311+G(2d,p)
 ****
 36  38  39  40  41 0
 6-311+G(2d,p)
 ****
 1  2  3  4  5  16  17  18  19  20  21  22  23  24  25 0
 3-21G
 ****
 27  28  30  31  32  35  37  42  43  44  45  46  47 0
 3-21G
 ****
 48  49 0
 3-21G
 ****


