%nproc=1
%NoSave
%Mem=1900MB
#P OB98/GEN NMR

erre ene a

0 1
  C     1231.062    -214.627     -88.480
  O     1231.447    -214.486     -89.844
  P     1232.518    -213.330     -90.199
  C     1234.411    -215.022     -90.847
  O     1233.966    -213.994     -89.968
  C     1235.948    -215.053     -90.880
  O     1236.455    -213.859     -91.549
  C     1236.620    -215.155     -89.505
  O     1237.766    -216.005     -89.662
  C     1237.041    -213.722     -89.240
  O     1238.106    -213.652     -88.294
  C     1237.436    -213.276     -90.660
  N     1237.480    -211.820     -90.811
  C     1238.313    -211.322     -91.799
  O     1239.049    -212.038     -92.485
  N     1238.315    -209.962     -91.948
  C     1237.644    -209.067     -91.166
  O     1237.663    -207.852     -91.340
  C     1236.862    -209.647     -90.057
  C     1236.829    -210.973     -89.926
  O     1232.327    -212.354     -88.957
  O     1232.301    -212.732     -91.545
  H     1232.153    -212.803     -88.117
  H     1237.776    -213.991     -87.420
  H     1238.884    -209.588     -92.689
  H     1236.371    -208.976     -89.372
  H     1236.293    -211.436     -89.103
  H     1238.411    -213.683     -90.944
  H     1236.202    -213.140     -88.867
  H     1235.956    -215.548     -88.740
  H     1236.250    -215.932     -91.494
  H     1234.038    -214.838     -91.861
  H     1233.993    -215.976     -90.510
  P     1237.762    -217.432     -88.917
  C     1236.992    -218.491     -91.187
  O     1236.846    -218.413     -89.773
  O     1236.836    -217.090     -87.652
  O     1239.108    -217.939     -88.514
  H     1236.028    -216.604     -87.903
  H     1236.456    -219.376     -91.536
  H     1238.046    -218.590     -91.458
  H     1236.568    -217.605     -91.649
  H     1230.354    -215.424     -88.390
  H     1230.618    -213.715     -88.138
  H     1231.925    -214.848     -87.887

 3  4  5  6  7  8  9  10  11  12  13  24  28  29  30  31  32 0
 6-311+G(2d,p)
 ****
 33  34 0
 6-311+G(2d,p)
 ****
 1  2  14  15  16  17  18  19  20  21  22  23  25  26  27 0
 3-21G
 ****
 35  36  37  38  39  40  41  42  43  44  45 0
 3-21G
 ****


