%nproc=1
%NoSave
%Mem=1900MB
#P OB98/GEN NMR

erre ene a

0 1
  C       76.392    -273.364      33.782
  O       76.763    -272.043      34.129
  H       77.059    -274.061      34.299
  H       76.501    -273.516      32.705
  H       75.364    -273.573      34.089
  P       75.878    -270.823      33.582
  C       75.728    -269.464      31.402
  O       76.430    -270.477      32.113
  C       76.697    -268.616      30.579
  O       77.516    -267.829      31.484
  C       77.637    -269.442      29.690
  O       77.827    -268.745      28.459
  C       78.938    -269.457      30.473
  O       80.076    -269.628      29.628
  C       78.898    -268.099      31.175
  N       83.598    -268.600      32.970
  C       83.140    -268.574      31.668
  N       84.064    -268.730      30.693
  N       81.882    -268.412      31.345
  C       81.069    -268.256      32.420
  C       81.401    -268.262      33.753
  C       82.795    -268.457      34.098
  O       83.258    -268.499      35.232
  N       80.287    -268.096      34.544
  C       79.286    -267.992      33.688
  N       79.706    -268.094      32.385
  O       75.776    -269.644      34.497
  O       74.448    -271.478      33.293
  H       80.169    -268.806      29.100
  H       73.826    -271.283      34.019
  H       84.578    -268.736      33.161
  H       78.245    -267.852      33.952
  H       79.278    -267.289      30.537
  H       78.922    -270.277      31.201
  H       85.051    -268.842      30.865
  H       77.261    -270.452      29.495
  H       83.754    -268.692      29.727
  H       76.115    -267.905      29.979
  H       75.209    -268.828      32.133
  H       74.983    -269.930      30.746
  P       76.731    -268.917      27.298
  C       76.490    -270.257      25.108
  O       77.215    -270.098      26.323
  O       76.310    -267.657      26.615
  O       75.498    -269.597      28.071
  H       74.665    -269.324      27.639
  H       76.905    -271.070      24.549
  H       76.557    -269.357      24.532
  H       75.464    -270.463      25.329

 6  7  8  9  10  11  12  13  14  15  26  29  33  34 0
 6-311+G(2d,p)
 ****
 36  38  39  40  41 0
 6-311+G(2d,p)
 ****
 1  2  3  4  5  16  17  18  19  20  21  22  23  24  25 0
 3-21G
 ****
 27  28  30  31  32  35  37  42  43  44  45  46  47 0
 3-21G
 ****
 48  49 0
 3-21G
 ****


