%nproc=1
%NoSave
%Mem=1900MB
#P OB98/GEN NMR

erre ene a

0 1
  C     -199.809     361.772    -211.476
  O     -200.892     362.662    -211.647
  H     -199.043     362.227    -210.844
  H     -200.172     360.862    -210.990
  H     -199.381     361.506    -212.446
  P     -200.563     364.084    -212.314
  C     -201.978     363.720    -214.454
  O     -201.811     364.461    -213.254
  C     -203.290     364.112    -215.130
  O     -204.385     363.616    -214.319
  C     -203.485     365.626    -215.322
  O     -203.682     365.927    -216.707
  C     -204.771     365.940    -214.574
  O     -205.606     366.871    -215.259
  C     -205.441     364.578    -214.434
  N     -210.186     365.445    -212.796
  C     -209.699     365.203    -214.032
  N     -208.441     364.874    -214.389
  C     -207.650     364.776    -213.304
  C     -208.011     364.970    -211.981
  C     -209.344     365.339    -211.742
  N     -209.827     365.640    -210.488
  N     -206.921     364.790    -211.148
  C     -205.915     364.536    -211.958
  N     -206.304     364.536    -213.271
  O     -199.398     363.738    -213.357
  O     -200.148     365.150    -211.357
  H     -205.050     367.645    -215.470
  H     -198.669     364.379    -213.258
  H     -210.413     365.292    -214.845
  H     -204.886     364.389    -211.656
  H     -206.040     364.321    -215.317
  H     -204.517     366.361    -213.593
  H     -202.647     366.213    -214.929
  H     -203.346     363.597    -216.097
  H     -202.003     362.649    -214.224
  H     -210.762     366.008    -210.423
  H     -209.179     365.670    -209.715
  H     -201.127     363.915    -215.116
  P     -202.416     366.528    -217.501
  C     -202.785     364.695    -219.310
  O     -202.551     366.069    -219.031
  O     -201.199     365.644    -216.956
  O     -202.198     367.986    -217.273
  H     -200.366     366.149    -217.016
  H     -202.850     364.552    -220.368
  H     -203.702     364.389    -218.852
  H     -201.979     364.110    -218.920

 6  7  8  9  10  11  12  13  14  15  25  28  32  33  34  35 0
 6-311+G(2d,p)
 ****
 36  39  40 0
 6-311+G(2d,p)
 ****
 1  2  3  4  5  16  17  18  19  20  21  22  23  24 0
 3-21G
 ****
 26  27  29  30  31  37  38  41  42  43  44  45  46  47  48 0
 3-21G
 ****


