%nproc=1
%NoSave
%Mem=1900MB
#P OB98/GEN NMR

erre ene a

0 1
  C     -118.267     177.531     -36.820
  O     -117.995     178.660     -36.011
  P     -119.245     179.515     -35.482
  C     -118.099     181.722     -36.269
  O     -119.258     180.895     -36.295
  C     -117.743     182.156     -37.692
  O     -117.598     181.000     -38.548
  C     -118.812     183.019     -38.351
  O     -118.745     184.359     -37.899
  C     -118.474     182.858     -39.826
  O     -117.421     183.760     -40.214
  C     -117.985     181.396     -39.883
  N     -118.979     180.497     -40.449
  C     -118.778     180.120     -41.775
  O     -117.834     180.534     -42.450
  N     -119.720     179.288     -42.312
  C     -120.853     178.845     -41.690
  O     -121.685     178.140     -42.243
  C     -121.025     179.293     -40.297
  C     -120.100     180.090     -39.756
  O     -118.811     179.950     -34.004
  O     -120.543     178.782     -35.487
  H     -117.793     184.661     -40.146
  H     -119.592     179.960     -33.414
  H     -119.581     178.982     -43.263
  H     -121.913     178.963     -39.777
  H     -120.224     180.448     -38.738
  H     -117.074     181.328     -40.492
  H     -119.331     183.069     -40.473
  H     -119.805     182.594     -38.165
  H     -116.786     182.684     -37.666
  H     -117.265     181.167     -35.833
  H     -118.298     182.595     -35.640
  P     -119.946     184.876     -36.968
  C     -120.373     186.770     -38.717
  O     -120.901     185.715     -37.943
  O     -119.191     185.973     -36.081
  O     -120.593     183.779     -36.185
  H     -118.474     186.411     -36.573
  H     -119.358     186.553     -39.051
  H     -120.375     187.685     -38.127
  H     -121.009     186.915     -39.597
  H     -117.347     177.061     -37.097
  H     -118.789     177.841     -37.701
  H     -118.871     176.837     -36.273

 3  4  5  6  7  8  9  10  11  12  13  23  28  29  30  31  32 0
 6-311+G(2d,p)
 ****
 33  34 0
 6-311+G(2d,p)
 ****
 1  2  14  15  16  17  18  19  20  21  22  24  25  26 0
 3-21G
 ****
 27  35  36  37  38  39  40  41  42  43  44  45 0
 3-21G
 ****


