%nproc=1
%NoSave
%Mem=1900MB
#P OB98/GEN NMR

erre ene a

0 1
  C      -48.353    -430.066    -184.158
  O      -48.938    -430.934    -183.206
  H      -48.935    -429.141    -184.186
  H      -48.368    -430.522    -185.150
  H      -47.326    -429.825    -183.873
  P      -48.293    -432.386    -183.001
  C      -49.588    -434.573    -182.540
  O      -49.437    -433.442    -183.390
  C      -51.067    -434.825    -182.254
  O      -51.607    -433.771    -181.434
  C      -51.945    -434.893    -183.501
  O      -51.866    -436.177    -184.100
  C      -53.312    -434.617    -182.895
  O      -53.794    -435.800    -182.230
  C      -52.980    -433.530    -181.855
  N      -56.007    -429.483    -182.331
  C      -56.298    -430.760    -181.895
  N      -57.586    -431.004    -181.568
  N      -55.412    -431.717    -181.798
  C      -54.180    -431.353    -182.228
  C      -53.774    -430.126    -182.699
  C      -54.750    -429.055    -182.735
  O      -54.526    -427.903    -183.093
  N      -52.471    -430.158    -183.127
  C      -52.075    -431.390    -182.868
  N      -53.082    -432.160    -182.328
  O      -47.660    -432.642    -181.667
  O      -47.244    -432.525    -184.201
  H      -54.726    -435.637    -181.993
  H      -46.357    -432.228    -183.929
  H      -56.732    -428.789    -182.392
  H      -51.079    -431.775    -183.045
  H      -53.614    -433.607    -180.966
  H      -54.059    -434.338    -183.639
  H      -58.337    -430.357    -181.759
  H      -51.702    -434.095    -184.208
  H      -57.828    -431.949    -181.301
  H      -51.142    -435.753    -181.673
  H      -49.049    -434.363    -181.611
  H      -49.148    -435.460    -183.007
  P      -52.186    -436.398    -185.659
  C      -53.894    -437.991    -186.778
  O      -53.624    -437.108    -185.701
  O      -51.119    -437.104    -186.425
  O      -52.524    -434.931    -186.204
  H      -51.719    -434.423    -186.465
  H      -54.883    -438.387    -186.675
  H      -53.186    -438.793    -186.768
  H      -53.817    -437.459    -187.703

 6  7  8  9  10  11  12  13  14  15  26  29  33  34 0
 6-311+G(2d,p)
 ****
 36  38  39  40  41 0
 6-311+G(2d,p)
 ****
 1  2  3  4  5  16  17  18  19  20  21  22  23  24  25 0
 3-21G
 ****
 27  28  30  31  32  35  37  42  43  44  45  46  47 0
 3-21G
 ****
 48  49 0
 3-21G
 ****


