%nproc=1
%NoSave
%Mem=1900MB
#P OB98/GEN NMR

erre ene a

0 1
  C      384.401      -3.649     189.451
  O      383.513      -3.441     190.532
  H      384.749      -2.684     189.073
  H      385.263      -4.218     189.810
  H      383.913      -4.212     188.647
  P      382.044      -2.895     190.182
  C      379.655      -3.807     190.649
  O      381.015      -3.767     191.060
  C      379.030      -5.163     190.983
  O      379.763      -6.197     190.259
  C      379.069      -5.526     192.479
  O      377.844      -6.198     192.812
  C      380.219      -6.524     192.565
  O      380.089      -7.411     193.673
  C      380.115      -7.216     191.210
  N      382.843     -11.478     191.765
  C      381.535     -11.215     191.974
  N      380.874     -10.056     191.749
  C      381.690      -9.138     191.192
  C      383.045      -9.272     190.909
  C      383.632     -10.508     191.244
  N      384.976     -10.765     191.098
  N      383.544      -8.091     190.397
  C      382.519      -7.256     190.389
  N      381.381      -7.846     190.861
  O      381.819      -3.441     188.688
  O      381.871      -1.415     190.270
  H      380.762      -8.113     193.592
  H      382.175      -2.797     188.050
  H      380.943     -12.024     192.387
  H      382.554      -6.217     190.081
  H      379.344      -7.992     191.184
  H      381.166      -5.983     192.665
  H      379.211      -4.668     193.138
  H      378.002      -5.178     190.604
  H      379.607      -3.646     189.567
  H      385.330     -11.645     191.459
  H      385.592     -10.020     190.817
  H      379.098      -3.005     191.148
  P      376.916      -5.522     193.929
  C      374.524      -6.038     194.837
  O      375.741      -6.548     194.308
  O      376.152      -4.367     193.127
  O      377.676      -4.978     195.100
  H      375.980      -3.608     193.711
  H      373.853      -6.848     195.034
  H      374.079      -5.371     194.129
  H      374.724      -5.511     195.747

 6  7  8  9  10  11  12  13  14  15  25  28  32  33  34  35 0
 6-311+G(2d,p)
 ****
 36  39  40 0
 6-311+G(2d,p)
 ****
 1  2  3  4  5  16  17  18  19  20  21  22  23  24 0
 3-21G
 ****
 26  27  29  30  31  37  38  41  42  43  44  45  46  47 0
 3-21G
 ****
 48 0
 3-21G
 ****


