%nproc=1
%NoSave
%Mem=1900MB
#P OB98/GEN NMR

erre ene a

0 1
  C     -116.059     -76.540       7.402
  O     -117.052     -75.736       8.003
  H     -116.062     -76.403       6.317
  H     -115.082     -76.242       7.792
  H     -116.230     -77.593       7.645
  P     -118.554     -75.948       7.478
  C     -119.585     -76.134       5.108
  O     -118.540     -75.604       5.910
  C     -119.639     -75.410       3.769
  O     -119.967     -74.019       3.967
  C     -118.328     -75.406       2.992
  O     -118.105     -76.639       2.321
  C     -118.587     -74.273       2.009
  O     -119.386     -74.755       0.913
  C     -119.399     -73.280       2.855
  N     -117.952     -68.403       2.150
  C     -118.759     -69.218       1.431
  N     -119.089     -70.502       1.671
  C     -118.506     -70.942       2.799
  C     -117.662     -70.229       3.634
  C     -117.380     -68.902       3.269
  N     -116.544     -68.086       3.999
  N     -117.267     -71.002       4.703
  C     -117.861     -72.164       4.521
  N     -118.616     -72.178       3.378
  O     -119.352     -74.715       8.119
  O     -119.179     -77.253       7.843
  H     -119.710     -73.968       0.436
  H     -120.253     -75.009       8.352
  H     -119.203     -68.775       0.543
  H     -117.779     -73.013       5.188
  H     -120.239     -72.863       2.288
  H     -117.671     -73.853       1.587
  H     -117.484     -75.140       3.637
  H     -120.443     -75.862       3.173
  H     -120.542     -76.006       5.624
  H     -116.538     -67.100       3.802
  H     -116.126     -68.466       4.842
  H     -119.404     -77.204       4.955
  P     -116.587     -77.154       2.207
  C     -114.403     -76.170       1.211
  O     -115.803     -76.008       1.403
  O     -116.689     -78.345       1.143
  O     -115.972     -77.602       3.487
  H     -115.955     -78.975       1.280
  H     -114.019     -75.335       0.663
  H     -114.220     -77.071       0.663
  H     -113.917     -76.226       2.162

 6  7  8  9  10  11  12  13  14  15  25  28  32  33  34  35 0
 6-311+G(2d,p)
 ****
 36  39  40 0
 6-311+G(2d,p)
 ****
 1  2  3  4  5  16  17  18  19  20  21  22  23  24 0
 3-21G
 ****
 26  27  29  30  31  37  38  41  42  43  44  45  46  47  48 0
 3-21G
 ****


