%nproc=1
%NoSave
%Mem=1900MB
#P OB98/GEN NMR

erre ene a

0 1
  C      296.167    -160.239     243.796
  O      295.903    -161.170     242.742
  P      295.210    -160.577     241.415
  C      294.149    -162.940     241.174
  O      294.733    -161.821     240.521
  C      294.503    -164.236     240.449
  O      293.836    -164.319     239.175
  C      295.986    -164.388     240.126
  O      296.728    -164.819     241.257
  C      295.946    -165.471     239.057
  O      295.870    -166.769     239.678
  C      294.640    -165.151     238.307
  N      295.885    -165.609     233.415
  C      295.773    -166.576     234.395
  N      295.994    -167.854     234.005
  N      295.468    -166.317     235.643
  C      295.243    -165.000     235.877
  C      295.323    -163.952     234.994
  C      295.694    -164.246     233.622
  O      295.838    -163.425     232.726
  N      295.015    -162.756     235.601
  C      294.722    -163.096     236.839
  N      294.856    -164.442     237.063
  O      296.458    -159.990     240.595
  O      294.178    -159.532     241.684
  H      296.621    -166.832     240.296
  H      296.163    -159.262     240.014
  H      296.129    -165.860     232.474
  H      294.402    -162.404     237.611
  H      294.062    -166.056     238.097
  H      296.841    -165.472     238.429
  H      296.161    -168.128     233.050
  H      296.389    -163.459     239.697
  H      295.880    -168.578     234.705
  H      294.169    -165.078     241.071
  H      293.062    -162.826     241.200
  H      294.491    -162.965     242.214
  P      297.898    -163.854     241.777
  C      299.126    -165.841     242.912
  O      298.504    -164.578     243.070
  O      297.101    -162.601     242.372
  O      298.883    -163.447     240.727
  H      297.641    -161.790     242.308
  H      299.763    -165.865     242.026
  H      298.356    -166.614     242.831
  H      299.743    -166.046     243.795
  H      296.625    -160.750     244.617
  H      295.248    -159.796     244.119
  H      296.825    -159.474     243.440

 3  4  5  6  7  8  9  10  11  12  23  26  30  31  33  0
 6-311+G(2d,p)
 ****
 35  36  37  38 0
 6-311+G(2d,p)
 ****
 1  2  13  14  15  16  17  18  19  20  21  22  24  25  27  28  29 0
 3-21G
 ****
 32  34  39  40  41  42  43  44  45  46  47  48  49 0
 3-21G
 ****


