%nproc=1
%NoSave
%Mem=1900MB
#P OB98/GEN NMR

erre ene a

0 1
  C     -299.448     195.284    -114.765
  O     -300.478     194.332    -114.620
  H     -298.759     195.191    -113.919
  H     -299.866     196.295    -114.760
  H     -298.890     195.118    -115.691
  P     -301.520     194.182    -115.831
  C     -301.441     191.603    -116.137
  O     -302.189     192.727    -115.687
  C     -302.263     190.321    -115.981
  O     -302.664     190.191    -114.588
  C     -303.529     190.296    -116.842
  O     -303.723     188.963    -117.331
  C     -304.638     190.637    -115.862
  O     -305.911     190.131    -116.269
  C     -304.096     190.028    -114.560
  N     -304.687     190.668    -113.382
  C     -306.008     190.341    -113.084
  O     -306.627     189.544    -113.805
  N     -306.624     190.944    -112.022
  C     -306.000     191.874    -111.362
  N     -306.669     192.462    -110.336
  C     -304.623     192.305    -111.681
  C     -304.028     191.661    -112.693
  O     -300.576     194.025    -117.117
  O     -302.495     195.299    -115.978
  H     -306.457     189.993    -115.468
  H     -300.994     194.406    -117.912
  H     -304.152     193.099    -111.125
  H     -303.025     191.914    -113.005
  H     -304.309     188.951    -114.514
  H     -304.722     191.723    -115.766
  H     -303.497     190.993    -117.682
  H     -301.619     189.463    -116.208
  H     -307.618     192.151    -110.157
  H     -300.528     191.516    -115.535
  H     -306.303     193.225    -109.787
  H     -301.158     191.751    -117.184
  P     -303.531     188.744    -118.911
  C     -302.364     186.446    -118.584
  O     -303.428     187.173    -119.189
  O     -302.048     189.281    -119.181
  O     -304.541     189.469    -119.740
  H     -302.078     190.129    -119.667
  H     -302.432     185.416    -118.864
  H     -302.433     186.532    -117.520
  H     -301.427     186.844    -118.914

 6  7  8  9  10  11  12  13  14  15  16  26  30  31  32  33  35 0
 6-311+G(2d,p)
 ****
 37  38 0
 6-311+G(2d,p)
 ****
 1  2  3  4  5  17  18  19  20  21  22  23  24  25 0
 3-21G
 ****
 27  28  29  34  36  39  40  41  42  43  44  45  46 0
 3-21G
 ****


