%nproc=1
%NoSave
%Mem=1900MB
#P OB98/GEN NMR

erre ene a

0 1
  C      -32.864     164.275     489.714
  O      -32.791     162.874     489.867
  H      -33.606     164.662     490.416
  H      -33.179     164.522     488.698
  H      -31.902     164.746     489.926
  P      -31.565     162.088     489.201
  C      -32.794     159.954     488.424
  O      -31.877     160.521     489.348
  C      -33.344     158.622     488.952
  O      -32.263     157.652     488.999
  C      -33.881     158.762     490.379
  O      -34.914     157.817     490.658
  C      -32.665     158.428     491.228
  O      -33.005     157.990     492.546
  C      -31.988     157.355     490.377
  N      -28.197     155.941     493.484
  C      -29.554     156.020     493.736
  N      -29.951     155.668     494.989
  N      -30.437     156.423     492.860
  C      -29.888     156.809     491.684
  C      -28.559     156.798     491.318
  C      -27.600     156.317     492.289
  O      -26.383     156.250     492.124
  N      -28.385     157.274     490.044
  C      -29.604     157.572     489.637
  N      -30.549     157.285     490.586
  O      -30.369     162.300     490.242
  O      -31.183     162.536     487.822
  H      -32.219     158.119     493.108
  H      -29.509     162.178     489.802
  H      -27.567     155.598     494.186
  H      -29.853     157.978     488.665
  H      -32.402     156.366     490.598
  H      -32.062     159.332     491.337
  H      -29.292     155.545     495.737
  H      -34.244     159.763     490.594
  H      -30.872     156.011     495.278
  H      -34.095     158.223     488.258
  H      -32.252     159.803     487.486
  H      -33.608     160.652     488.219
  P      -36.438     158.275     490.459
  C      -37.358     157.128     492.659
  O      -37.410     157.288     491.256
  O      -36.739     157.946     488.926
  O      -36.699     159.714     490.786
  H      -36.913     158.769     488.429
  H      -38.099     156.420     492.965
  H      -37.547     158.069     493.133
  H      -36.389     156.774     492.942

 6  7  8  9  10  11  12  13  14  15  26  29  33  34 0
 6-311+G(2d,p)
 ****
 36  38  39  40  41 0
 6-311+G(2d,p)
 ****
 1  2  3  4  5  16  17  18  19  20  21  22  23  24  25 0
 3-21G
 ****
 27  28  30  31  32  35  37  42  43  44  45  46  47 0
 3-21G
 ****
 48  49 0
 3-21G
 ****


