%nproc=1
%NoSave
%Mem=1900MB
#P OB98/GEN NMR

erre ene a

0 1
  C     -300.792      63.370     658.820
  O     -300.700      63.125     660.208
  H     -300.520      62.461     658.281
  H     -300.088      64.161     658.545
  H     -301.807      63.661     658.539
  P     -301.418      64.169     661.190
  C     -299.517      65.927     661.021
  O     -300.882      65.628     660.778
  C     -299.374      67.318     661.648
  O     -299.684      68.317     660.630
  C     -300.314      67.562     662.845
  O     -299.626      68.373     663.808
  C     -301.424      68.399     662.233
  O     -302.112      69.177     663.204
  C     -300.634      69.222     661.220
  N     -303.001      73.479     660.007
  C     -302.036      73.228     660.960
  N     -301.682      74.260     661.761
  N     -301.465      72.064     661.119
  C     -301.894      71.127     660.243
  C     -302.849      71.245     659.260
  C     -303.489      72.536     659.103
  O     -304.368      72.810     658.292
  N     -303.046      70.049     658.621
  C     -302.233      69.204     659.235
  N     -301.514      69.814     660.224
  O     -300.701      63.884     662.590
  O     -302.904      64.040     661.287
  H     -302.475      68.571     663.882
  H     -301.234      63.257     663.115
  H     -303.425      74.392     659.937
  H     -302.142      68.151     659.013
  H     -300.083      70.045     661.686
  H     -302.151      67.743     661.732
  H     -302.053      75.193     661.680
  H     -300.677      66.647     663.319
  H     -300.942      74.099     662.431
  H     -298.328      67.466     661.938
  H     -298.967      65.907     660.074
  H     -299.093      65.168     661.685
  P     -298.969      67.639     665.071
  C     -300.854      67.729     666.865
  O     -300.136      66.948     665.924
  O     -298.510      68.858     666.002
  O     -297.813      66.756     664.725
  H     -297.685      68.627     666.470
  H     -301.592      67.120     667.345
  H     -301.335      68.541     666.361
  H     -300.177      68.114     667.599

 6  7  8  9  10  11  12  13  14  15  26  29  33  34 0
 6-311+G(2d,p)
 ****
 36  38  39  40  41 0
 6-311+G(2d,p)
 ****
 1  2  3  4  5  16  17  18  19  20  21  22  23  24  25 0
 3-21G
 ****
 27  28  30  31  32  35  37  42  43  44  45  46  47 0
 3-21G
 ****
 48  49 0
 3-21G
 ****


