%nproc=1
%NoSave
%Mem=1900MB
#P OB98/GEN NMR

erre ene a

0 1
  C      160.150     -51.447    -108.756
  O      160.748     -52.616    -109.276
  P      161.483     -52.669    -110.693
  C      159.473     -51.909    -112.152
  O      160.376     -52.958    -111.822
  C      158.483     -52.297    -113.262
  O      159.158     -52.273    -114.535
  C      157.998     -53.736    -113.056
  O      156.935     -54.008    -112.167
  C      157.822     -54.298    -114.461
  O      156.463     -54.254    -114.901
  C      158.693     -53.382    -115.321
  N      160.354     -57.351    -118.002
  C      159.066     -56.874    -117.862
  N      158.087     -57.670    -118.344
  N      158.773     -55.739    -117.283
  C      159.851     -55.104    -116.767
  C      161.174     -55.469    -116.855
  C      161.486     -56.704    -117.534
  O      162.607     -57.203    -117.605
  N      161.986     -54.619    -116.150
  C      161.154     -53.761    -115.600
  N      159.843     -54.038    -115.913
  O      162.777     -53.414    -110.751
  O      161.815     -51.108    -110.936
  H      156.447     -54.495    -115.845
  H      162.664     -51.061    -111.416
  H      160.513     -58.272    -118.390
  H      161.441     -52.948    -114.944
  H      158.111     -52.958    -116.147
  H      158.123     -55.351    -114.497
  H      158.263     -58.612    -118.663
  H      158.844     -54.296    -112.634
  H      157.128     -57.437    -118.108
  H      157.674     -51.567    -113.339
  H      160.071     -51.045    -112.453
  H      158.912     -51.617    -111.260
  P      157.066     -54.458    -110.638
  C      157.497     -56.921    -111.179
  O      156.643     -55.998    -110.526
  O      155.860     -53.705    -109.898
  O      158.367     -54.115    -109.990
  H      156.055     -53.628    -108.946
  H      156.970     -57.870    -111.301
  H      158.392     -57.085    -110.569
  H      157.795     -56.548    -112.164
  H      159.724     -51.660    -107.798
  H      159.382     -51.113    -109.422
  H      160.891     -50.682    -108.655

 3  4  5  6  7  8  9  10  11  12  23  26  30  31 0
 6-311+G(2d,p)
 ****
 33  35  36  37  38 0
 6-311+G(2d,p)
 ****
 1  2  13  14  15  16  17  18  19  20  21  22  24  25 0
 3-21G
 ****
 27  28  29  32  34  39  40  41  42  43  44  45  46  47  48  49 0
 3-21G
 ****


