%nproc=1
%NoSave
%Mem=1900MB
#P OB98/GEN NMR

erre ene a

0 1
  C     -321.142      81.158     695.619
  O     -320.505      81.901     694.599
  H     -320.416      80.919     696.392
  H     -321.542      80.229     695.209
  H     -321.954      81.745     696.068
  P     -321.430      82.565     693.471
  C     -319.458      82.532     691.775
  O     -320.440      83.315     692.444
  C     -318.374      83.435     691.199
  O     -319.008      84.395     690.297
  C     -317.601      84.253     692.256
  O     -316.228      84.361     691.817
  C     -318.255      85.620     692.194
  O     -317.435      86.670     692.656
  C     -318.576      85.715     690.688
  N     -319.592      86.717     690.401
  C     -319.276      88.052     690.681
  O     -318.189      88.448     691.064
  N     -320.296      88.949     690.483
  C     -321.574      88.649     690.085
  O     -322.454      89.501     689.940
  C     -321.842      87.229     689.817
  C     -320.866      86.339     689.991
  O     -322.129      83.781     694.250
  O     -322.420      81.653     692.828
  H     -322.968      83.484     694.660
  H     -317.913      87.516     692.506
  H     -320.094      89.916     690.688
  H     -322.846      86.947     689.501
  H     -321.033      85.287     689.808
  H     -317.657      85.945     690.130
  H     -319.180      85.610     692.784
  H     -317.633      83.816     693.259
  H     -317.686      82.833     690.586
  H     -319.929      81.964     690.961
  H     -319.014      81.815     692.490
  P     -315.130      83.550     692.663
  C     -313.223      85.350     692.690
  O     -313.713      84.124     692.174
  O     -315.243      82.102     691.993
  O     -315.376      83.582     694.130
  H     -315.421      82.133     691.036
  H     -312.272      85.568     692.250
  H     -313.115      85.273     693.752
  H     -313.912      86.135     692.458

 6  7  8  9  10  11  12  13  14  15  16  27  31  32  33  34  35 0
 6-311+G(2d,p)
 ****
 36  37 0
 6-311+G(2d,p)
 ****
 1  2  3  4  5  17  18  19  20  21  22  23  24  25 0
 3-21G
 ****
 26  28  29  30  38  39  40  41  42  43  44  45 0
 3-21G
 ****


