%nproc=1
%NoSave
%Mem=1900MB
#P OB98/GEN NMR

erre ene a

0 1
  C      -21.011     149.196     -87.913
  O      -20.725     148.651     -86.640
  H      -21.189     148.374     -88.612
  H      -20.165     149.789     -88.272
  H      -21.909     149.817     -87.861
  P      -20.396     149.698     -85.470
  C      -21.103     149.876     -82.996
  O      -21.069     149.056     -84.159
  C      -22.252     149.456     -82.078
  O      -23.498     149.914     -82.662
  C      -22.356     147.941     -81.888
  O      -22.730     147.660     -80.540
  C      -23.484     147.541     -82.823
  O      -24.129     146.338     -82.415
  C      -24.376     148.782     -82.782
  N      -27.957     146.464     -85.581
  C      -27.437     146.182     -84.367
  N      -26.492     146.866     -83.685
  C      -26.121     147.967     -84.362
  C      -26.559     148.380     -85.608
  C      -27.522     147.569     -86.234
  N      -28.038     147.833     -87.480
  N      -25.909     149.538     -85.988
  C      -25.102     149.825     -84.983
  N      -25.184     148.894     -83.985
  O      -20.764     151.117     -85.747
  O      -18.838     149.430     -85.222
  H      -24.890     146.179     -83.012
  H      -18.638     148.476     -85.206
  H      -27.822     145.289     -83.882
  H      -24.435     150.680     -84.939
  H      -25.064     148.778     -81.927
  H      -23.088     147.384     -83.835
  H      -21.427     147.424     -82.130
  H      -22.140     149.972     -81.118
  H      -21.226     150.928     -83.281
  H      -28.736     147.204     -87.850
  H      -27.738     148.662     -87.974
  H      -20.144     149.767     -82.480
  P      -21.616     147.084     -79.544
  C      -21.380     146.766     -76.992
  O      -22.276     146.896     -78.091
  O      -20.297     147.778     -79.564
  O      -21.464     145.564     -80.041
  H      -20.524     145.302     -79.976
  H      -21.940     146.648     -76.088
  H      -20.771     147.643     -76.923
  H      -20.756     145.909     -77.140

 6  7  8  9  10  11  12  13  14  15  25  28  32  33  34  35 0
 6-311+G(2d,p)
 ****
 36  39  40 0
 6-311+G(2d,p)
 ****
 1  2  3  4  5  16  17  18  19  20  21  22  23  24 0
 3-21G
 ****
 26  27  29  30  31  37  38  41  42  43  44  45  46  47 0
 3-21G
 ****
 48 0
 3-21G
 ****


