%nproc=1
%NoSave
%Mem=1900MB
#P OB98/GEN NMR

erre ene a

0 1
  C      255.587     275.006    -529.141
  O      256.587     274.831    -530.131
  P      257.293     276.144    -530.723
  C      256.476     275.500    -533.094
  O      257.585     275.849    -532.271
  C      256.938     274.975    -534.443
  O      257.684     276.023    -535.129
  C      257.855     273.743    -534.366
  O      257.470     272.801    -535.381
  C      259.223     274.282    -534.750
  O      260.071     273.273    -535.291
  C      258.819     275.381    -535.735
  N      261.877     277.107    -539.364
  C      260.762     276.307    -539.470
  N      260.459     275.855    -540.705
  N      260.012     275.973    -538.448
  C      260.422     276.520    -537.277
  C      261.506     277.340    -537.052
  C      262.366     277.652    -538.178
  O      263.415     278.283    -538.143
  N      261.591     277.710    -535.734
  C      260.559     277.113    -535.156
  N      259.854     276.340    -536.046
  O      258.735     276.107    -530.047
  O      256.587     277.435    -530.430
  H      259.982     272.491    -534.715
  H      258.902     276.941    -529.562
  H      262.423     277.321    -540.178
  H      260.306     277.189    -534.103
  H      258.485     274.931    -536.684
  H      259.707     274.700    -533.859
  H      260.967     276.102    -541.536
  H      257.870     273.247    -533.387
  H      259.627     275.276    -540.796
  H      256.055     274.768    -535.065
  H      255.849     276.380    -533.248
  H      255.882     274.732    -532.578
  P      257.649     271.245    -534.990
  C      258.476     270.811    -537.429
  O      257.594     270.442    -536.380
  O      256.255     270.882    -534.288
  O      258.827     270.970    -534.117
  H      256.371     270.119    -533.680
  H      259.237     271.529    -537.093
  H      257.898     271.254    -538.239
  H      258.979     269.909    -537.794
  H      255.209     274.050    -528.843
  H      254.789     275.596    -529.541
  H      256.008     275.503    -528.292

 3  4  5  6  7  8  9  10  11  12  23  26  30  31  33  0
 6-311+G(2d,p)
 ****
 35  36  37  38 0
 6-311+G(2d,p)
 ****
 1  2  13  14  15  16  17  18  19  20  21  22  24  25  27  28  29 0
 3-21G
 ****
 32  34  39  40  41  42  43  44  45  46  47  48  49 0
 3-21G
 ****


