%nproc=1
%NoSave
%Mem=1900MB
#P OB98/GEN NMR

erre ene a

0 1
  C      169.578     387.954     497.075
  O      170.641     387.177     496.506
  P      171.881     387.854     495.751
  C      172.010     386.335     493.671
  O      171.702     387.634     494.168
  C      171.773     386.231     492.161
  O      170.368     386.336     491.855
  C      172.462     387.319     491.337
  O      173.835     387.024     491.174
  C      171.638     387.289     490.056
  O      172.073     386.216     489.204
  C      170.225     387.010     490.591
  N      167.895     390.817     488.101
  C      168.583     389.740     487.662
  N      169.183     388.770     488.389
  C      168.986     388.982     489.704
  C      168.309     390.032     490.297
  C      167.742     390.987     489.431
  N      167.053     392.090     489.879
  N      168.340     389.926     491.673
  C      169.016     388.812     491.902
  N      169.424     388.209     490.743
  O      173.217     387.443     496.272
  O      171.662     389.430     495.931
  H      171.496     386.213     488.420
  H      172.524     389.886     495.911
  H      168.669     389.646     486.580
  H      169.226     388.408     492.883
  H      169.672     386.328     489.933
  H      171.717     388.219     489.478
  H      172.339     388.292     491.828
  H      172.110     385.241     491.836
  H      171.374     385.607     494.190
  H      166.706     392.744     489.197
  H      166.977     392.251     490.876
  H      173.058     386.113     493.897
  P      174.939     387.847     491.999
  C      175.991     389.704     490.579
  O      174.926     389.346     491.434
  O      176.286     387.209     492.082
  O      174.278     388.010     493.448
  H      174.990     388.056     494.121
  H      176.879     389.935     491.176
  H      175.704     390.593     490.010
  H      176.219     388.898     489.878
  H      168.861     387.301     497.527
  H      169.104     388.527     496.306
  H      169.976     388.614     497.817

 3  4  5  6  7  8  9  10  11  12  22  25  29  30  31  32 0
 6-311+G(2d,p)
 ****
 33  36  37 0
 6-311+G(2d,p)
 ****
 1  2  13  14  15  16  17  18  19  20  21  23  24  26 0
 3-21G
 ****
 27  28  34  35  38  39  40  41  42  43  44  45  46  47  48 0
 3-21G
 ****


