%nproc=1
%NoSave
%Mem=1900MB
#P OB98/GEN NMR

erre ene a

0 1
  C     -214.236     195.675      62.355
  O     -215.068     195.117      63.352
  H     -214.665     195.498      61.363
  H     -214.160     196.754      62.518
  H     -213.231     195.239      62.412
  P     -215.314     193.531      63.269
  C     -212.954     192.522      62.907
  O     -213.984     192.827      63.840
  C     -211.641     192.257      63.644
  O     -211.246     193.487      64.315
  C     -211.725     191.137      64.696
  O     -210.655     190.198      64.520
  C     -211.526     191.857      66.021
  O     -210.816     191.073      66.976
  C     -210.745     193.100      65.607
  N     -208.259     196.234      68.774
  C     -207.836     195.532      67.699
  N     -208.569     194.793      66.838
  C     -209.876     194.848      67.162
  C     -210.454     195.538      68.213
  C     -209.582     196.243      69.058
  N     -210.003     196.915      70.186
  N     -211.830     195.348      68.229
  C     -212.064     194.524      67.228
  N     -210.918     194.179      66.562
  O     -215.252     193.234      61.694
  O     -216.599     193.073      63.866
  H     -209.896     191.002      66.667
  H     -216.114     192.872      61.411
  H     -206.766     195.563      67.504
  H     -213.034     194.107      66.969
  H     -209.671     192.901      65.506
  H     -212.505     192.116      66.438
  H     -212.678     190.603      64.671
  H     -210.864     192.030      62.903
  H     -212.817     193.367      62.223
  H     -209.301     197.291      70.800
  H     -210.973     196.830      70.466
  H     -213.248     191.641      62.324
  P     -211.089     188.665      64.264
  C     -210.317     188.072      61.853
  O     -210.029     188.013      63.250
  O     -212.428     188.809      63.400
  O     -211.328     187.897      65.521
  H     -213.165     188.341      63.844
  H     -209.527     187.601      61.306
  H     -210.401     189.094      61.549
  H     -211.239     187.565      61.657

 6  7  8  9  10  11  12  13  14  15  25  28  32  33  34  35 0
 6-311+G(2d,p)
 ****
 36  39  40 0
 6-311+G(2d,p)
 ****
 1  2  3  4  5  16  17  18  19  20  21  22  23  24 0
 3-21G
 ****
 26  27  29  30  31  37  38  41  42  43  44  45  46  47  48 0
 3-21G
 ****


