%nproc=1
%NoSave
%Mem=1900MB
#P OB98/GEN NMR

erre ene a

0 1
  C      236.389    -227.688     244.377
  O      237.537    -228.469     244.113
  H      235.993    -227.312     243.431
  H      236.643    -226.839     245.017
  H      235.622    -228.301     244.863
  P      238.330    -229.029     245.396
  C      239.771    -226.858     245.348
  O      238.906    -227.702     246.094
  C      241.050    -226.600     246.143
  O      241.811    -225.526     245.555
  C      240.812    -226.190     247.592
  O      240.499    -227.286     248.431
  C      242.166    -225.584     247.930
  O      243.120    -226.639     248.144
  C      242.476    -224.806     246.630
  N      242.030    -223.413     246.675
  C      242.754    -222.550     247.505
  O      243.704    -222.964     248.167
  N      242.357    -221.234     247.597
  C      241.340    -220.816     246.915
  N      240.981    -219.505     247.054
  C      240.565    -221.686     246.016
  C      240.951    -222.955     245.944
  O      239.643    -229.693     244.769
  O      237.557    -229.930     246.302
  H      243.316    -227.023     247.268
  H      240.261    -229.960     245.490
  H      239.711    -221.298     245.472
  H      240.427    -223.659     245.303
  H      243.552    -224.822     246.415
  H      242.147    -224.976     248.835
  H      240.050    -225.401     247.667
  H      241.671    -227.509     246.085
  H      241.495    -218.950     247.723
  H      239.254    -225.912     245.155
  H      240.107    -219.141     246.708
  H      240.029    -227.328     244.392
  P      239.117    -227.222     249.254
  C      240.496    -226.451     251.319
  O      239.352    -226.228     250.497
  O      239.037    -228.666     249.940
  O      237.900    -226.927     248.426
  H      238.121    -229.002     249.946
  H      240.523    -225.719     252.099
  H      241.383    -226.372     250.725
  H      240.441    -227.429     251.749

 6  7  8  9  10  11  12  13  14  15  16  26  30  31  32  33  35 0
 6-311+G(2d,p)
 ****
 37  38 0
 6-311+G(2d,p)
 ****
 1  2  3  4  5  17  18  19  20  21  22  23  24  25 0
 3-21G
 ****
 27  28  29  34  36  39  40  41  42  43  44  45  46 0
 3-21G
 ****


