%nproc=1
%NoSave
%Mem=1900MB
#P OB98/GEN NMR

erre ene a

0 1
  C      190.328     206.410     353.737
  O      191.040     207.209     354.655
  P      190.256     208.285     355.543
  C      188.419     210.023     355.092
  O      189.512     209.298     354.550
  C      188.360     211.430     354.496
  O      188.338     211.357     353.050
  C      187.107     212.213     354.880
  O      187.199     212.708     356.203
  C      187.087     213.285     353.806
  O      187.989     214.362     354.136
  C      187.622     212.516     352.573
  N      183.665     214.115     349.764
  C      184.445     214.754     350.679
  N      185.450     214.237     351.412
  C      185.617     212.929     351.152
  C      184.882     212.147     350.264
  C      183.879     212.796     349.535
  N      183.132     212.187     348.552
  N      185.338     210.837     350.292
  C      186.320     210.836     351.186
  N      186.559     212.096     351.671
  O      191.062     208.935     356.627
  O      189.042     207.442     356.172
  H      188.044     214.939     353.345
  H      189.106     207.458     357.154
  H      184.225     215.802     350.839
  H      186.884     209.964     351.482
  H      188.335     213.116     351.995
  H      186.099     213.728     353.654
  H      186.217     211.577     354.772
  H      189.263     211.973     354.805
  H      188.549     210.094     356.182
  H      182.541     212.787     347.992
  H      183.470     211.307     348.155
  H      187.483     209.474     354.885
  P      185.912     212.718     357.153
  C      183.519     213.623     356.988
  O      184.823     213.659     356.445
  O      186.169     212.994     358.599
  O      185.289     211.248     356.952
  H      184.862     210.959     357.780
  H      183.011     212.717     356.644
  H      182.959     214.506     356.650
  H      183.542     213.632     358.085
  H      191.007     205.753     353.235
  H      189.842     207.038     353.019
  H      189.594     205.833     354.260

 3  4  5  6  7  8  9  10  11  12  22  25  29  30  31  32 0
 6-311+G(2d,p)
 ****
 33  36  37 0
 6-311+G(2d,p)
 ****
 1  2  13  14  15  16  17  18  19  20  21  23  24  26 0
 3-21G
 ****
 27  28  34  35  38  39  40  41  42  43  44  45  46  47  48 0
 3-21G
 ****


