%nproc=1
%NoSave
%Mem=1900MB
#P OB98/GEN NMR

erre ene a

0 1
  C     -466.048     -62.570     318.006
  O     -466.408     -61.253     317.566
  P     -465.519     -60.030     318.096
  C     -467.685     -58.558     318.171
  O     -466.343     -58.705     317.725
  C     -468.334     -57.352     317.487
  O     -467.578     -56.147     317.761
  C     -468.398     -57.452     315.974
  O     -469.410     -58.358     315.558
  C     -468.645     -55.998     315.598
  O     -470.035     -55.671     315.757
  C     -467.801     -55.243     316.650
  N     -466.550     -54.731     316.117
  C     -466.662     -53.752     315.135
  O     -467.745     -53.341     314.716
  N     -465.486     -53.260     314.641
  C     -464.229     -53.667     314.993
  O     -463.210     -53.192     314.518
  C     -464.175     -54.751     315.994
  C     -465.317     -55.221     316.504
  O     -464.314     -60.053     317.052
  O     -465.124     -60.172     319.526
  H     -464.587     -60.308     316.154
  H     -470.313     -56.047     316.622
  H     -465.551     -52.535     313.935
  H     -463.201     -55.117     316.285
  H     -465.291     -56.020     317.242
  H     -468.371     -54.399     317.056
  H     -468.377     -55.782     314.557
  H     -467.426     -57.777     315.581
  H     -469.343     -57.223     317.906
  H     -467.703     -58.412     319.256
  H     -468.236     -59.480     317.954
  P     -468.921     -59.714     314.851
  C     -471.100     -59.951     313.423
  O     -470.245     -60.498     314.413
  O     -468.389     -60.547     316.115
  O     -467.907     -59.508     313.781
  H     -468.982     -60.498     316.883
  H     -471.722     -60.757     313.016
  H     -470.523     -59.509     312.604
  H     -471.743     -59.197     313.869
  H     -466.720     -63.285     317.579
  H     -466.107     -62.618     319.073
  H     -465.048     -62.790     317.694

 3  4  5  6  7  8  9  10  11  12  13  24  28  29  30  31  32 0
 6-311+G(2d,p)
 ****
 33  34 0
 6-311+G(2d,p)
 ****
 1  2  14  15  16  17  18  19  20  21  22  23  25  26  27 0
 3-21G
 ****
 35  36  37  38  39  40  41  42  43  44  45 0
 3-21G
 ****


