%nproc=1
%NoSave
%Mem=1900MB
#P OB98/GEN NMR

erre ene a

0 1
  C      180.957    -897.180     127.819
  O      181.419    -896.410     128.923
  P      181.999    -894.920     128.827
  C      184.338    -895.430     127.743
  O      183.041    -894.870     127.608
  C      185.063    -895.480     126.395
  O      185.377    -894.120     125.965
  C      186.402    -896.250     126.471
  O      186.637    -897.090     125.350
  C      187.412    -895.120     126.714
  O      188.735    -895.490     126.385
  C      186.821    -893.970     125.913
  N      189.018    -889.520     124.755
  C      188.929    -890.660     123.993
  N      189.491    -890.630     122.768
  N      188.327    -891.760     124.402
  C      187.854    -891.670     125.674
  C      187.922    -890.590     126.535
  C      188.518    -889.380     126.050
  O      188.630    -888.340     126.679
  N      187.326    -890.890     127.753
  C      186.956    -892.150     127.635
  N      187.229    -892.650     126.385
  O      182.424    -894.310     130.115
  O      180.754    -894.060     128.268
  H      188.766    -895.640     125.412
  H      180.848    -893.170     128.650
  H      189.470    -888.680     124.390
  H      186.448    -892.720     128.400
  H      187.112    -894.020     124.847
  H      187.393    -894.890     127.780
  H      190.074    -889.860     122.461
  H      186.404    -896.930     127.328
  H      189.609    -891.530     122.317
  H      184.418    -895.900     125.648
  H      184.205    -896.440     128.123
  H      184.926    -894.870     128.495
  P      186.537    -898.700     125.279
  C      189.028    -899.340     125.172
  O      187.828    -899.320     125.967
  O      186.721    -899.040     123.737
  O      185.235    -899.250     125.796
  H      185.918    -899.490     123.387
  H      189.739    -900.000     125.633
  H      189.451    -898.340     125.120
  H      188.794    -899.700     124.165
  H      180.625    -898.136     128.165
  H      181.754    -897.312     127.118
  H      180.145    -896.671     127.344

 3  4  5  6  7  8  9  10  11  12  23  26  30  31 0
 6-311+G(2d,p)
 ****
 33  35  36  37  38 0
 6-311+G(2d,p)
 ****
 1  2  13  14  15  16  17  18  19  20  21  22  24  25 0
 3-21G
 ****
 27  28  29  32  34  39  40  41  42  43  44  45  46  47  48  49 0
 3-21G
 ****


