%nproc=1
%NoSave
%Mem=1900MB
#P OB98/GEN NMR

erre ene a

0 1
  C     1078.992     578.992    -255.575
  O     1078.835     580.135    -256.393
  P     1078.158     579.916    -257.848
  C     1076.597     581.989    -257.851
  O     1077.764     581.367    -258.378
  C     1076.345     583.337    -258.556
  O     1077.271     584.329    -258.072
  C     1076.507     583.297    -260.095
  O     1075.559     584.219    -260.654
  C     1077.915     583.800    -260.313
  O     1078.123     584.285    -261.635
  C     1078.001     584.841    -259.210
  N     1081.741     588.252    -259.240
  C     1080.492     588.334    -259.811
  N     1080.179     589.463    -260.431
  N     1079.626     587.339    -259.788
  C     1080.083     586.251    -259.109
  C     1081.315     586.070    -258.532
  C     1082.247     587.159    -258.529
  O     1083.334     587.196    -257.975
  N     1081.437     584.766    -258.005
  C     1080.240     584.237    -258.225
  N     1079.387     585.106    -258.850
  O     1076.766     579.234    -257.494
  O     1078.995     579.126    -258.825
  H     1079.058     584.551    -261.711
  H     1076.839     578.244    -257.542
  H     1082.358     589.038    -259.268
  H     1079.971     583.242    -257.927
  H     1077.547     585.801    -259.499
  H     1078.617     582.987    -260.126
  H     1080.771     590.277    -260.470
  H     1076.323     582.303    -260.508
  H     1079.250     589.552    -260.865
  H     1075.324     583.662    -258.296
  H     1076.744     582.211    -256.793
  H     1075.717     581.314    -257.944
  P     1074.485     583.687    -261.697
  C     1072.274     584.417    -260.578
  O     1073.202     584.632    -261.621
  O     1073.984     582.320    -261.068
  O     1075.026     583.447    -263.078
  H     1073.755     581.692    -261.767
  H     1071.691     585.330    -260.398
  H     1072.752     584.119    -259.660
  H     1071.597     583.607    -260.881
  H     1079.448     579.276    -254.650
  H     1079.613     578.278    -256.075
  H     1078.034     578.557    -255.382

 3  4  5  6  7  8  9  10  11  12  23  26  30  31 0
 6-311+G(2d,p)
 ****
 33  35  36  37  38 0
 6-311+G(2d,p)
 ****
 1  2  13  14  15  16  17  18  19  20  21  22  24  25 0
 3-21G
 ****
 27  28  29  32  34  39  40  41  42  43  44  45  46  47  48  49 0
 3-21G
 ****


