%nproc=1
%NoSave
%Mem=1900MB
#P OB98/GEN NMR

erre ene a

0 1
  C      480.691     -90.275     109.687
  O      481.235     -91.461     110.233
  H      480.908     -89.447     110.366
  H      479.607     -90.379     109.592
  H      481.132     -90.052     108.713
  P      481.321     -92.769     109.314
  C      482.482     -92.406     107.038
  O      482.656     -92.619     108.434
  C      483.791     -92.642     106.284
  O      484.792     -91.704     106.778
  C      484.367     -94.058     106.450
  O      485.076     -94.378     105.246
  C      485.340     -93.859     107.598
  O      486.273     -94.916     107.675
  C      485.908     -92.478     107.255
  N      486.572     -91.849     108.398
  C      487.884     -91.436     108.205
  O      488.499     -91.609     107.153
  N      488.494     -90.855     109.281
  C      487.948     -90.709     110.524
  O      488.556     -90.208     111.463
  C      486.570     -91.203     110.685
  C      485.953     -91.740     109.627
  O      480.091     -93.094     108.534
  O      481.710     -93.943     110.333
  H      485.819     -95.757     107.894
  H      481.338     -94.790     110.023
  H      489.446     -90.543     109.158
  H      486.113     -91.110     111.659
  H      484.938     -92.111     109.709
  H      486.640     -92.552     106.441
  H      484.807     -93.824     108.555
  H      483.603     -94.809     106.660
  H      483.632     -92.404     105.224
  H      482.143     -91.375     106.892
  H      481.708     -93.088     106.662
  P      484.656     -95.616     104.316
  C      482.869     -96.077     102.518
  O      483.666     -95.088     103.168
  O      484.145     -96.801     105.070
  O      485.989     -95.990     103.511
  H      485.980     -96.938     103.279
  H      482.254     -95.609     101.778
  H      482.249     -96.566     103.240
  H      483.507     -96.797     102.049

 6  7  8  9  10  11  12  13  14  15  16  26  31  32  33  34  35 0
 6-311+G(2d,p)
 ****
 36  37 0
 6-311+G(2d,p)
 ****
 1  2  3  4  5  17  18  19  20  21  22  23  24  25 0
 3-21G
 ****
 27  28  29  30  38  39  40  41  42  43  44  45 0
 3-21G
 ****


