%nproc=1
%NoSave
%Mem=1900MB
#P OB98/GEN NMR

erre ene a

0 1
  C     -510.853     -43.492    -276.724
  O     -511.954     -42.892    -277.373
  H     -510.153     -43.857    -277.487
  H     -511.184     -44.347    -276.126
  H     -510.332     -42.772    -276.086
  P     -513.051     -42.139    -276.484
  C     -513.772     -40.431    -278.283
  O     -514.151     -41.559    -277.493
  C     -515.015     -39.681    -278.751
  O     -515.764     -40.496    -279.680
  C     -515.989     -39.348    -277.626
  O     -515.527     -38.267    -276.846
  C     -517.252     -39.069    -278.421
  O     -517.255     -37.735    -278.943
  C     -517.147     -40.105    -279.565
  N     -518.007     -41.262    -279.333
  C     -519.024     -41.477    -280.258
  O     -519.218     -40.750    -281.235
  N     -519.871     -42.523    -279.985
  C     -519.871     -43.265    -278.839
  O     -520.789     -44.018    -278.533
  C     -518.742     -43.043    -277.929
  C     -517.874     -42.058    -278.206
  O     -512.511     -41.147    -275.498
  O     -513.831     -43.326    -275.748
  H     -513.517     -43.397    -274.827
  H     -516.418     -37.632    -279.428
  H     -520.635     -42.654    -280.638
  H     -518.670     -43.656    -277.047
  H     -517.053     -41.851    -277.535
  H     -517.433     -39.645    -280.524
  H     -518.148     -39.190    -277.806
  H     -516.150     -40.231    -276.999
  H     -514.689     -38.768    -279.274
  H     -513.211     -40.790    -279.154
  H     -513.120     -39.779    -277.691
  P     -515.895     -38.184    -275.284
  C     -513.573     -37.874    -274.227
  O     -514.814     -37.251    -274.554
  O     -516.135     -39.499    -274.620
  O     -517.220     -37.285    -275.248
  H     -517.904     -37.738    -274.706
  H     -512.933     -37.164    -273.747
  H     -513.105     -38.228    -275.122
  H     -513.750     -38.697    -273.567

 6  7  8  9  10  11  12  13  14  15  16  27  31  32  33  34  35 0
 6-311+G(2d,p)
 ****
 36  37 0
 6-311+G(2d,p)
 ****
 1  2  3  4  5  17  18  19  20  21  22  23  24  25 0
 3-21G
 ****
 26  28  29  30  38  39  40  41  42  43  44  45 0
 3-21G
 ****


