%nproc=1
%NoSave
%Mem=1900MB
#P OB98/GEN NMR

erre ene a

0 1
  C       48.551      52.524     -71.752
  O       49.877      53.054     -71.647
  P       50.356      53.882     -70.358
  C       52.756      53.057     -70.756
  O       51.937      54.177     -70.433
  C       52.609      52.601     -72.213
  O       52.671      53.734     -73.122
  C       53.671      51.599     -72.689
  O       53.027      50.771     -73.663
  C       54.692      52.507     -73.353
  O       55.565      51.826     -74.242
  C       53.771      53.516     -74.030
  N       57.564      55.716     -76.677
  C       57.031      54.475     -76.733
  N       55.999      53.976     -76.024
  C       55.476      54.913     -75.212
  C       55.907      56.219     -75.054
  C       57.014      56.614     -75.826
  N       57.591      57.862     -75.738
  N       55.144      56.876     -74.106
  C       54.276      55.971     -73.695
  N       54.434      54.768     -74.337
  O       49.910      53.299     -69.055
  O       49.704      55.332     -70.557
  H       55.031      51.447     -74.964
  H       49.301      55.620     -69.715
  H       57.500      53.791     -77.436
  H       53.530      56.125     -72.926
  H       53.358      53.116     -74.964
  H       55.313      52.978     -72.579
  H       54.096      50.996     -71.882
  H       51.606      52.169     -72.323
  H       52.490      52.228     -70.089
  H       58.438      58.019     -76.262
  H       57.279      58.499     -75.022
  H       53.802      53.321     -70.557
  P       53.238      49.183     -73.689
  C       50.972      48.550     -74.693
  O       52.370      48.626     -74.911
  O       52.999      48.496     -72.386
  O       54.749      48.986     -74.189
  H       55.054      48.091     -73.950
  H       50.743      47.686     -74.061
  H       50.466      48.433     -75.655
  H       50.601      49.461     -74.208
  H       48.445      52.011     -72.685
  H       47.842      53.324     -71.702
  H       48.375      51.841     -70.947

 3  4  5  6  7  8  9  10  11  12  22  25  29  30  31  32 0
 6-311+G(2d,p)
 ****
 33  36  37 0
 6-311+G(2d,p)
 ****
 1  2  13  14  15  16  17  18  19  20  21  23  24  26 0
 3-21G
 ****
 27  28  34  35  38  39  40  41  42  43  44  45  46  47  48 0
 3-21G
 ****


