%nproc=1
%NoSave
%Mem=1900MB
#P OB98/GEN NMR

erre ene a

0 1
  C       -8.736      18.439      26.642
  O       -7.374      18.098      26.457
  H       -9.060      19.055      25.800
  H       -8.857      19.010      27.566
  H       -9.347      17.534      26.675
  P       -6.711      17.168      27.583
  C       -5.675      19.141      28.900
  O       -6.648      18.105      28.883
  C       -5.679      19.855      30.249
  O       -6.971      20.429      30.514
  C       -5.375      18.953      31.438
  O       -3.979      18.745      31.571
  C       -5.931      19.791      32.579
  O       -4.987      20.823      32.931
  C       -7.186      20.423      31.950
  N      -11.168      20.055      35.168
  C      -10.001      20.729      35.257
  N       -8.972      20.747      34.385
  C       -9.232      19.966      33.324
  C      -10.378      19.219      33.095
  C      -11.383      19.290      34.073
  N      -12.577      18.608      33.973
  N      -10.288      18.538      31.899
  C       -9.131      18.911      31.390
  N       -8.438      19.746      32.231
  O       -5.445      16.486      27.196
  O       -7.932      16.189      27.927
  H       -5.314      21.255      33.741
  H       -8.774      16.678      27.921
  H       -9.878      21.338      36.149
  H       -8.758      18.621      30.415
  H       -7.318      21.464      32.267
  H       -6.107      19.202      33.481
  H       -5.932      18.013      31.381
  H       -4.961      20.683      30.192
  H       -5.868      19.859      28.097
  H      -13.166      18.579      34.792
  H      -12.683      17.944      33.221
  H       -4.699      18.677      28.722
  P       -3.403      17.308      31.989
  C       -4.076      17.994      34.373
  O       -4.060      16.948      33.409
  O       -1.920      17.186      31.943
  O       -4.115      16.284      30.991
  H       -3.493      15.580      30.725
  H       -4.534      17.642      35.274
  H       -4.633      18.823      33.990
  H       -3.073      18.303      34.580

 6  7  8  9  10  11  12  13  14  15  25  28  32  33  34  35 0
 6-311+G(2d,p)
 ****
 36  39  40 0
 6-311+G(2d,p)
 ****
 1  2  3  4  5  16  17  18  19  20  21  22  23  24 0
 3-21G
 ****
 26  27  29  30  31  37  38  41  42  43  44  45  46  47 0
 3-21G
 ****
 48 0
 3-21G
 ****


