%nproc=1
%NoSave
%Mem=1900MB
#P OB98/GEN NMR

erre ene a

0 1
  C     -171.580      80.350     110.776
  O     -170.660      79.761     109.880
  H     -172.231      81.026     110.215
  H     -171.051      80.924     111.543
  H     -172.192      79.576     111.245
  P     -169.569      78.771     110.516
  C     -170.099      77.110     108.618
  O     -169.090      77.859     109.284
  C     -170.832      77.988     107.603
  O     -169.851      78.589     106.720
  C     -171.827      77.214     106.731
  O     -172.959      78.045     106.464
  C     -171.055      76.991     105.442
  O     -171.915      76.768     104.328
  C     -170.228      78.274     105.368
  N     -168.474      78.737     100.612
  C     -169.623      79.137     101.194
  N     -170.001      78.992     102.483
  C     -169.021      78.413     103.201
  C     -167.799      77.952     102.748
  C     -167.538      78.126     101.376
  N     -166.386      77.693     100.765
  N     -167.090      77.375     103.781
  C     -167.866      77.495     104.842
  N     -169.052      78.097     104.533
  O     -170.011      78.020     111.728
  O     -168.319      79.747     110.731
  H     -172.541      77.519     104.263
  H     -168.156      80.296     109.940
  H     -170.339      79.630     100.541
  H     -167.624      77.149     105.843
  H     -170.795      79.120     104.959
  H     -170.404      76.115     105.543
  H     -172.153      76.276     107.180
  H     -171.325      78.807     108.138
  H     -170.814      76.712     109.346
  H     -166.280      77.859      99.777
  H     -165.673      77.239     101.316
  H     -169.614      76.268     108.113
  P     -174.430      77.445     106.674
  C     -175.261      79.869     106.931
  O     -175.505      78.596     106.353
  O     -174.654      76.712     107.954
  O     -174.593      76.465     105.415
  H     -175.030      75.637     105.708
  H     -176.040      80.545     106.646
  H     -174.320      80.243     106.585
  H     -175.239      79.778     107.997

 6  7  8  9  10  11  12  13  14  15  25  28  32  33  34  35 0
 6-311+G(2d,p)
 ****
 36  39  40 0
 6-311+G(2d,p)
 ****
 1  2  3  4  5  16  17  18  19  20  21  22  23  24 0
 3-21G
 ****
 26  27  29  30  31  37  38  41  42  43  44  45  46  47 0
 3-21G
 ****
 48 0
 3-21G
 ****


