%nproc=1
%NoSave
%Mem=1900MB
#P OB98/GEN NMR

erre ene a

0 1
  C      306.292    -302.480     -88.749
  O      307.203    -301.549     -89.300
  H      306.801    -303.038     -87.960
  H      305.952    -303.187     -89.514
  H      305.432    -301.960     -88.306
  P      306.728    -300.680     -90.568
  C      307.780    -300.481     -92.932
  O      307.537    -301.315     -91.805
  C      308.607    -301.225     -93.981
  O      309.938    -301.510     -93.483
  C      308.054    -302.587     -94.383
  O      306.916    -302.503     -95.225
  C      309.266    -303.170     -95.099
  O      309.396    -302.569     -96.399
  C      310.411    -302.704     -94.155
  N      310.802    -303.726     -93.182
  C      311.934    -304.489     -93.490
  O      312.560    -304.294     -94.536
  N      312.313    -305.485     -92.631
  C      311.617    -305.719     -91.550
  N      312.010    -306.751     -90.758
  C      310.428    -304.928     -91.183
  C      310.069    -303.960     -92.029
  O      306.834    -299.199     -90.424
  O      305.237    -301.191     -90.863
  H      309.756    -301.672     -96.258
  H      304.892    -300.667     -91.633
  H      309.871    -305.164     -90.285
  H      309.198    -303.350     -91.843
  H      311.296    -302.412     -94.733
  H      309.211    -304.247     -95.235
  H      307.840    -303.202     -93.499
  H      308.724    -300.557     -94.844
  H      312.799    -307.300     -91.062
  H      308.301    -299.581     -92.582
  H      311.378    -307.161     -90.074
  H      306.829    -300.183     -93.394
  P      305.910    -303.747     -95.266
  C      305.445    -305.576     -97.073
  O      306.384    -304.685     -96.490
  O      304.548    -303.103     -95.793
  O      305.733    -304.496     -93.977
  H      303.964    -302.848     -95.039
  H      305.915    -306.121     -97.865
  H      304.620    -305.019     -97.464
  H      305.093    -306.260     -96.329

 6  7  8  9  10  11  12  13  14  15  16  26  30  31  32  33  35 0
 6-311+G(2d,p)
 ****
 37  38 0
 6-311+G(2d,p)
 ****
 1  2  3  4  5  17  18  19  20  21  22  23  24  25 0
 3-21G
 ****
 27  28  29  34  36  39  40  41  42  43  44  45  46 0
 3-21G
 ****


