%nproc=1
%NoSave
%Mem=1900MB
#P OB98/GEN NMR

erre ene a

0 1
  C     -692.738     892.816    -456.588
  O     -693.143     894.134    -456.193
  P     -694.711     894.500    -456.216
  C     -695.458     894.620    -453.751
  O     -695.408     893.831    -454.934
  C     -694.760     893.888    -452.593
  O     -693.345     893.698    -452.850
  C     -694.814     894.675    -451.277
  O     -696.111     894.610    -450.713
  C     -693.719     893.998    -450.482
  O     -694.210     892.781    -449.859
  C     -692.685     893.651    -451.559
  N     -691.532     894.541    -451.557
  C     -690.487     894.192    -450.676
  O     -690.603     893.209    -449.944
  N     -689.365     894.977    -450.635
  C     -689.283     896.022    -451.401
  N     -688.147     896.774    -451.332
  C     -690.362     896.429    -452.340
  C     -691.457     895.654    -452.343
  O     -695.405     894.263    -457.514
  O     -694.712     896.061    -455.828
  H     -694.319     892.131    -450.563
  H     -695.468     896.482    -456.264
  H     -690.239     897.313    -452.966
  H     -692.289     895.895    -453.000
  H     -692.312     892.635    -451.425
  H     -693.355     894.637    -449.672
  H     -694.540     895.731    -451.469
  H     -695.246     892.913    -452.460
  H     -687.440     896.463    -450.678
  H     -696.496     894.822    -453.500
  H     -687.962     897.566    -451.937
  H     -694.973     895.584    -453.951
  P     -697.200     895.698    -451.198
  C     -699.012     894.247    -452.349
  O     -697.914     895.151    -452.499
  O     -696.277     896.908    -451.756
  O     -698.107     896.200    -450.118
  H     -696.716     897.749    -451.579
  H     -699.575     894.219    -453.284
  H     -699.685     894.584    -451.534
  H     -698.642     893.255    -452.119
  H     -691.673     892.734    -456.518
  H     -693.044     892.636    -457.598
  H     -693.195     892.094    -455.943

 3  4  5  6  7  8  9  10  11  12  13  23  27  28  29  30  32 0
 6-311+G(2d,p)
 ****
 34  35 0
 6-311+G(2d,p)
 ****
 1  2  14  15  16  17  18  19  20  21  22  24  25  26 0
 3-21G
 ****
 31  33  36  37  38  39  40  41  42  43  44  45  46 0
 3-21G
 ****


