%nproc=1
%NoSave
%Mem=1900MB
#P OB98/GEN NMR

erre ene a

0 1
  C      269.606    -251.569     109.194
  O      270.289    -251.717     107.955
  P      269.413    -251.870     106.621
  C      267.849    -253.679     105.617
  O      268.755    -253.335     106.654
  C      267.153    -255.012     105.904
  O      266.390    -254.885     107.140
  C      266.180    -255.474     104.812
  O      266.222    -256.909     104.788
  C      264.829    -255.023     105.343
  O      263.749    -255.748     104.751
  C      265.028    -255.275     106.840
  N      262.195    -255.268     111.103
  C      263.041    -256.184     110.592
  N      263.765    -256.118     109.447
  C      263.539    -254.950     108.817
  C      262.672    -253.935     109.199
  C      261.980    -254.122     110.411
  N      261.124    -253.184     110.943
  N      262.689    -252.908     108.277
  C      263.549    -253.293     107.352
  N      264.101    -254.508     107.651
  O      270.533    -251.989     105.479
  O      268.472    -250.745     106.343
  H      263.604    -255.401     103.851
  H      270.521    -251.191     104.913
  H      263.161    -257.095     111.173
  H      263.793    -252.736     106.461
  H      264.908    -256.333     107.102
  H      264.683    -253.961     105.135
  H      266.400    -255.070     103.823
  H      267.920    -255.769     106.081
  H      268.404    -253.771     104.679
  H      260.772    -253.329     111.872
  H      261.105    -252.254     110.535
  H      267.104    -252.882     105.501
  P      266.579    -257.596     103.382
  C      265.281    -257.936     101.165
  O      265.426    -257.186     102.351
  O      266.307    -259.154     103.658
  O      267.982    -257.359     102.926
  H      266.879    -259.701     103.081
  H      264.220    -257.964     100.892
  H      265.648    -258.962     101.279
  H      265.841    -257.447     100.357
  H      270.320    -251.479     109.986
  H      268.989    -252.426     109.366
  H      268.996    -250.691     109.162

 3  4  5  6  7  8  9  10  11  12  22  25  29  30  31  32 0
 6-311+G(2d,p)
 ****
 33  36  37 0
 6-311+G(2d,p)
 ****
 1  2  13  14  15  16  17  18  19  20  21  23  24  26 0
 3-21G
 ****
 27  28  34  35  38  39  40  41  42  43  44  45  46  47  48 0
 3-21G
 ****


