%nproc=1
%NoSave
%Mem=1900MB
#P OB98/GEN NMR

erre ene a

0 1
  C     -429.403    -371.073     135.881
  O     -428.308    -370.599     136.640
  H     -430.328    -370.763     136.374
  H     -429.379    -372.164     135.837
  H     -429.385    -370.656     134.872
  P     -426.824    -370.754     136.044
  C     -425.806    -372.941     136.983
  O     -426.541    -372.329     135.928
  C     -425.518    -374.404     136.660
  O     -424.789    -374.477     135.401
  C     -424.649    -375.127     137.728
  O     -425.034    -376.516     137.716
  C     -423.260    -374.932     137.145
  O     -422.288    -375.726     137.773
  C     -423.564    -375.213     135.667
  N     -422.519    -374.826     134.720
  C     -421.444    -375.696     134.572
  O     -421.310    -376.766     135.161
  N     -420.473    -375.292     133.679
  C     -420.494    -374.139     132.946
  O     -419.615    -373.842     132.142
  C     -421.652    -373.261     133.165
  C     -422.603    -373.642     134.020
  O     -425.757    -369.966     136.726
  O     -426.992    -370.315     134.509
  H     -426.660    -369.400     134.395
  H     -421.404    -375.481     137.427
  H     -419.693    -375.908     133.550
  H     -421.689    -372.338     132.606
  H     -423.471    -373.018     134.191
  H     -423.799    -376.279     135.527
  H     -422.938    -373.892     137.286
  H     -424.784    -374.723     138.730
  H     -426.464    -374.937     136.505
  H     -426.402    -372.871     137.903
  H     -424.861    -372.393     137.132
  P     -426.031    -377.168     138.787
  C     -424.184    -377.324     140.595
  O     -425.475    -376.835     140.257
  O     -426.307    -378.622     138.563
  O     -427.390    -376.313     138.673
  H     -428.143    -376.854     138.963
  H     -423.942    -377.031     141.595
  H     -423.461    -376.917     139.920
  H     -424.177    -378.392     140.525

 6  7  8  9  10  11  12  13  14  15  16  27  31  32  33  34  35 0
 6-311+G(2d,p)
 ****
 36  37 0
 6-311+G(2d,p)
 ****
 1  2  3  4  5  17  18  19  20  21  22  23  24  25 0
 3-21G
 ****
 26  28  29  30  38  39  40  41  42  43  44  45 0
 3-21G
 ****


