%nproc=1
%NoSave
%Mem=1900MB
#P OB98/GEN NMR

erre ene a

0 1
  C      310.967     -56.758    -134.079
  O      312.020     -57.648    -133.767
  H      310.212     -56.822    -133.291
  H      310.510     -57.041    -135.030
  H      311.339     -55.732    -134.131
  P      313.325     -57.577    -134.703
  C      312.021     -58.822    -136.610
  O      312.778     -57.695    -136.207
  C      311.733     -58.763    -138.111
  O      312.992     -58.762    -138.826
  C      310.905     -59.940    -138.627
  O      310.016     -59.462    -139.638
  C      311.941     -60.865    -139.241
  O      311.371     -61.725    -140.226
  C      312.979     -59.859    -139.763
  N      314.306     -60.454    -139.905
  C      314.499     -61.305    -140.998
  O      313.569     -61.540    -141.772
  N      315.720     -61.904    -141.166
  C      316.650     -61.726    -140.279
  N      317.833     -62.365    -140.490
  C      316.474     -60.880    -139.083
  C      315.295     -60.274    -138.967
  O      314.000     -59.001    -134.427
  O      314.210     -56.407    -134.432
  H      312.106     -62.119    -140.746
  H      313.362     -59.732    -134.382
  H      317.274     -60.776    -138.364
  H      315.083     -59.627    -138.122
  H      312.672     -59.460    -140.737
  H      312.387     -61.496    -138.463
  H      310.333     -60.443    -137.846
  H      311.245     -57.808    -138.332
  H      317.907     -62.951    -141.312
  H      311.077     -58.863    -136.060
  H      318.605     -62.339    -139.841
  H      312.597     -59.722    -136.370
  P      308.582     -58.890    -139.214
  C      307.312     -61.134    -139.231
  O      307.765     -60.042    -138.448
  O      307.821     -58.185    -140.286
  O      308.942     -57.877    -138.019
  H      308.360     -57.097    -138.101
  H      306.786     -61.826    -138.607
  H      308.151     -61.624    -139.679
  H      306.657     -60.776    -139.997

 6  7  8  9  10  11  12  13  14  15  16  26  30  31  32  33  35 0
 6-311+G(2d,p)
 ****
 37  38 0
 6-311+G(2d,p)
 ****
 1  2  3  4  5  17  18  19  20  21  22  23  24  25 0
 3-21G
 ****
 27  28  29  34  36  39  40  41  42  43  44  45  46 0
 3-21G
 ****


