%nproc=1
%NoSave
%Mem=1900MB
#P OB98/GEN NMR

erre ene a

0 1
  C      -29.858      11.210      18.196
  O      -30.199      11.148      19.571
  P      -31.553      11.818      20.108
  C      -30.201      14.003      20.146
  O      -31.437      13.390      19.802
  C      -30.101      15.397      19.528
  O      -30.200      15.277      18.089
  C      -31.205      16.343      19.986
  O      -30.665      17.663      20.098
  C      -32.206      16.333      18.844
  O      -32.968      17.552      18.809
  C      -31.288      16.108      17.640
  N      -33.505      16.687      13.046
  C      -32.892      17.569      13.864
  N      -32.348      17.353      15.082
  C      -32.434      16.053      15.411
  C      -33.026      15.037      14.677
  C      -33.585      15.395      13.439
  N      -34.200      14.490      12.600
  N      -32.947      13.835      15.355
  C      -32.301      14.120      16.464
  N      -31.960      15.445      16.540
  O      -31.907      11.485      21.515
  O      -32.677      11.332      19.081
  H      -33.490      17.589      19.637
  H      -33.511      11.146      19.554
  H      -32.833      18.590      13.494
  H      -32.067      13.413      17.245
  H      -30.866      17.051      17.271
  H      -32.907      15.501      18.978
  H      -31.657      16.042      20.937
  H      -29.112      15.812      19.757
  H      -29.388      13.381      19.760
  H      -34.461      14.814      11.682
  H      -34.105      13.506      12.810
  H      -30.111      14.056      21.236
  P      -30.902      18.402      21.510
  C      -33.082      19.443      20.541
  O      -32.477      18.684      21.563
  O      -29.992      19.573      21.688
  O      -30.654      17.198      22.536
  H      -30.822      16.326      22.116
  H      -34.144      19.558      20.772
  H      -32.990      18.926      19.582
  H      -32.624      20.434      20.477
  H      -28.926      10.710      18.037
  H      -29.769      12.233      17.896
  H      -30.622      10.734      17.617

 3  4  5  6  7  8  9  10  11  12  22  25  29  30  31  32 0
 6-311+G(2d,p)
 ****
 33  36  37 0
 6-311+G(2d,p)
 ****
 1  2  13  14  15  16  17  18  19  20  21  23  24  26 0
 3-21G
 ****
 27  28  34  35  38  39  40  41  42  43  44  45  46  47  48 0
 3-21G
 ****


