%nproc=1
%NoSave
%Mem=1900MB
#P OB98/GEN NMR

erre ene a

0 1
  C     -372.082      70.036    -306.125
  O     -372.624      69.696    -304.860
  P     -373.780      70.639    -304.275
  C     -372.361      70.974    -302.122
  O     -373.616      70.591    -302.683
  C     -372.452      71.046    -300.603
  O     -373.461      72.001    -300.228
  C     -372.844      69.748    -299.924
  O     -371.739      68.867    -299.859
  C     -373.327      70.238    -298.571
  O     -372.227      70.358    -297.648
  C     -373.921      71.624    -298.911
  N     -375.375      71.637    -298.828
  C     -375.920      71.726    -297.530
  O     -375.165      71.750    -296.549
  N     -377.284      71.732    -297.390
  C     -378.040      71.651    -298.437
  N     -379.388      71.665    -298.238
  C     -377.517      71.543    -299.822
  C     -376.182      71.541    -299.927
  O     -375.115      69.791    -304.538
  O     -373.845      72.002    -304.890
  H     -372.604      70.758    -296.836
  H     -375.890      70.365    -304.614
  H     -378.193      71.489    -300.652
  H     -375.715      71.463    -300.908
  H     -373.539      72.385    -298.210
  H     -374.043      69.548    -298.120
  H     -373.681      69.271    -300.473
  H     -371.483      71.412    -300.210
  H     -379.724      71.733    -297.281
  H     -372.058      71.946    -302.514
  H     -380.058      71.630    -298.994
  H     -371.599      70.228    -302.426
  P     -371.609      67.741    -301.008
  C     -370.980      65.943    -299.299
  O     -370.561      66.689    -300.420
  O     -370.738      68.489    -302.131
  O     -372.881      67.195    -301.564
  H     -370.681      67.943    -302.931
  H     -370.244      65.157    -299.095
  H     -371.948      65.473    -299.476
  H     -371.043      66.607    -298.420
  H     -371.326      69.327    -306.391
  H     -371.653      71.015    -306.078
  H     -372.859      70.022    -306.861

 3  4  5  6  7  8  9  10  11  12  13  21  23  27  28  29  30  32 0
 6-311+G(2d,p)
 ****
 34  35 0
 6-311+G(2d,p)
 ****
 1  2  14  15  16  17  18  19  20  22  24  25  26 0
 3-21G
 ****
 31  33  36  37  38  39  40  41  42  43  44  45  46 0
 3-21G
 ****


