%nproc=1
%NoSave
%Mem=1900MB
#P OB98/GEN NMR

erre ene a

0 1
  C     -848.339    -922.505     462.773
  O     -848.702    -921.904     461.554
  H     -847.275    -922.747     462.750
  H     -848.903    -923.439     462.934
  H     -848.524    -921.825     463.615
  P     -850.223    -921.451     461.347
  C     -850.557    -922.951     459.260
  O     -850.523    -921.611     459.781
  C     -851.474    -922.998     458.043
  O     -852.798    -922.529     458.371
  C     -850.998    -922.145     456.857
  O     -849.979    -922.820     456.129
  C     -852.296    -921.992     456.091
  O     -852.582    -923.214     455.361
  C     -853.316    -921.801     457.218
  N     -856.377    -917.776     456.839
  C     -856.448    -919.022     456.215
  N     -857.478    -919.203     455.367
  N     -855.603    -919.987     456.438
  C     -854.598    -919.637     457.277
  C     -854.406    -918.432     457.926
  C     -855.373    -917.391     457.724
  O     -855.373    -916.299     458.267
  N     -853.234    -918.443     458.651
  C     -852.748    -919.660     458.463
  N     -853.537    -920.412     457.622
  O     -850.607    -920.116     461.910
  O     -851.072    -922.631     462.009
  H     -852.548    -923.941     456.030
  H     -851.275    -922.453     462.945
  H     -857.054    -917.055     456.626
  H     -851.837    -920.031     458.914
  H     -854.297    -922.224     456.984
  H     -852.258    -921.172     455.359
  H     -857.974    -918.416     454.934
  H     -850.669    -921.159     457.197
  H     -857.522    -920.067     454.856
  H     -851.560    -924.050     457.742
  H     -850.943    -923.593     460.060
  H     -849.562    -923.279     459.000
  P     -848.465    -922.269     456.089
  C     -847.253    -922.647     453.856
  O     -847.706    -923.216     455.075
  O     -847.826    -922.131     457.429
  O     -848.580    -920.908     455.279
  H     -848.778    -920.119     455.861
  H     -846.761    -923.398     453.273
  H     -846.568    -921.853     454.066
  H     -848.089    -922.262     453.310

 6  7  8  9  10  11  12  13  14  15  26  29  33  34 0
 6-311+G(2d,p)
 ****
 36  38  39  40  41 0
 6-311+G(2d,p)
 ****
 1  2  3  4  5  16  17  18  19  20  21  22  23  24  25 0
 3-21G
 ****
 27  28  30  31  32  35  37  42  43  44  45  46  47 0
 3-21G
 ****
 48  49 0
 3-21G
 ****


