%nproc=1
%NoSave
%Mem=1900MB
#P OB98/GEN NMR

erre ene a

0 1
  C     -129.847     -10.165    -193.690
  O     -129.237      -8.892    -193.528
  H     -130.856     -10.024    -194.085
  H     -129.910     -10.682    -192.730
  H     -129.270     -10.767    -194.402
  P     -127.751      -8.891    -192.926
  C     -126.561      -7.696    -194.903
  O     -126.761      -8.911    -194.191
  C     -125.274      -7.016    -194.448
  O     -124.195      -7.977    -194.345
  C     -124.781      -5.917    -195.385
  O     -125.450      -4.689    -195.125
  C     -123.301      -5.861    -195.021
  O     -123.073      -5.094    -193.818
  C     -122.970      -7.332    -194.797
  N     -118.820      -8.337    -197.498
  C     -118.971      -7.659    -196.309
  N     -117.835      -7.122    -195.782
  N     -120.104      -7.514    -195.686
  C     -121.145      -8.076    -196.353
  C     -121.137      -8.792    -197.524
  C     -119.849      -8.962    -198.180
  O     -119.649      -9.617    -199.216
  N     -122.389      -9.226    -197.865
  C     -123.163      -8.745    -196.913
  N     -122.465      -8.026    -195.986
  O     -127.582     -10.359    -192.307
  O     -127.471      -7.832    -191.906
  H     -122.134      -5.176    -193.560
  H     -126.979     -10.319    -191.543
  H     -117.909      -8.435    -197.921
  H     -124.237      -8.872    -196.860
  H     -122.219      -7.479    -194.006
  H     -122.716      -5.384    -195.807
  H     -117.034      -6.917    -196.359
  H     -124.891      -6.212    -196.435
  H     -117.945      -6.604    -194.921
  H     -125.450      -6.613    -193.442
  H     -127.407      -7.021    -194.709
  H     -126.519      -7.908    -195.974
  P     -125.481      -3.596    -196.303
  C     -128.082      -3.781    -196.409
  O     -126.840      -3.837    -197.122
  O     -124.354      -4.108    -197.325
  O     -125.235      -2.191    -195.865
  H     -124.091      -3.394    -197.927
  H     -128.891      -3.960    -197.086
  H     -128.196      -2.814    -195.966
  H     -128.087      -4.527    -195.642

 6  7  8  9  10  11  12  13  14  15  26  29  33  34 0
 6-311+G(2d,p)
 ****
 36  38  39  40  41 0
 6-311+G(2d,p)
 ****
 1  2  3  4  5  16  17  18  19  20  21  22  23  24  25 0
 3-21G
 ****
 27  28  30  31  32  35  37  42  43  44  45  46  47 0
 3-21G
 ****
 48  49 0
 3-21G
 ****


