%nproc=1
%NoSave
%Mem=1900MB
#P OB98/GEN NMR

erre ene a

0 1
  C     -295.351    -792.758     -42.079
  O     -296.750    -792.955     -41.987
  H     -295.156    -792.055     -42.894
  H     -294.861    -793.706     -42.312
  H     -294.949    -792.349     -41.154
  P     -297.339    -793.686     -40.687
  C     -297.887    -791.478     -39.459
  O     -297.133    -792.684     -39.447
  C     -299.190    -791.643     -38.666
  O     -298.868    -792.028     -37.307
  C     -299.972    -790.327     -38.589
  O     -301.376    -790.544     -38.461
  C     -299.447    -789.699     -37.305
  O     -300.347    -788.742     -36.741
  C     -299.224    -790.929     -36.434
  N     -297.978    -788.949     -31.905
  C     -299.108    -788.734     -32.669
  N     -300.029    -787.872     -32.158
  N     -299.305    -789.286     -33.839
  C     -298.271    -790.056     -34.258
  C     -297.096    -790.327     -33.595
  C     -296.901    -789.738     -32.288
  O     -295.910    -789.883     -31.573
  N     -296.281    -791.153     -34.342
  C     -296.969    -791.374     -35.443
  N     -298.191    -790.750     -35.431
  O     -296.264    -794.838     -40.379
  O     -298.723    -794.245     -40.832
  H     -299.846    -788.236     -36.075
  H     -296.671    -795.545     -39.849
  H     -297.891    -788.522     -30.999
  H     -296.622    -791.980     -36.278
  H     -300.146    -791.210     -35.910
  H     -298.517    -789.168     -37.539
  H     -299.822    -787.288     -31.363
  H     -299.786    -789.675     -39.445
  H     -300.692    -787.474     -32.829
  H     -299.784    -792.463     -39.098
  H     -298.099    -791.245     -40.505
  H     -297.290    -790.655     -39.055
  P     -302.242    -790.771     -39.793
  C     -302.228    -793.417     -39.709
  O     -301.937    -792.216     -40.391
  O     -301.583    -789.774     -40.851
  O     -303.714    -790.516     -39.625
  H     -302.223    -789.079     -41.110
  H     -301.933    -794.250     -40.312
  H     -303.279    -793.471     -39.515
  H     -301.693    -793.440     -38.783

 6  7  8  9  10  11  12  13  14  15  26  29  33  34 0
 6-311+G(2d,p)
 ****
 36  38  39  40  41 0
 6-311+G(2d,p)
 ****
 1  2  3  4  5  16  17  18  19  20  21  22  23  24  25 0
 3-21G
 ****
 27  28  30  31  32  35  37  42  43  44  45  46  47 0
 3-21G
 ****
 48  49 0
 3-21G
 ****


