%nproc=1
%NoSave
%Mem=1900MB
#P OB98/GEN NMR

erre ene a

0 1
  C     -567.568      94.971    -892.750
  O     -568.292      94.581    -893.910
  H     -566.673      94.349    -892.680
  H     -568.181      94.819    -891.860
  H     -567.271      96.022    -892.830
  P     -569.654      95.369    -894.200
  C     -568.879      96.148    -896.550
  O     -569.284      96.535    -895.240
  C     -568.521      97.382    -897.400
  O     -569.747      98.133    -897.680
  C     -567.538      98.339    -896.700
  O     -566.650      98.872    -897.690
  C     -568.440      99.452    -896.200
  O     -567.729     100.669    -896.000
  C     -569.480      99.497    -897.310
  N     -572.226     103.670    -897.970
  C     -571.065     103.260    -898.590
  N     -570.531     104.080    -899.520
  N     -570.463     102.141    -898.310
  C     -571.106     101.398    -897.370
  C     -572.247     101.695    -896.680
  C     -572.900     102.957    -896.980
  O     -573.919     103.387    -896.460
  N     -572.573     100.700    -895.800
  C     -571.612      99.803    -895.930
  N     -570.698     100.175    -896.890
  O     -569.930      96.169    -892.840
  O     -570.819      94.514    -894.600
  H     -567.042     100.733    -896.700
  H     -570.894      96.292    -892.700
  H     -572.648     104.550    -898.210
  H     -571.524      98.866    -895.390
  H     -569.123     100.026    -898.200
  H     -568.901      99.165    -895.240
  H     -570.969     104.943    -899.810
  H     -566.965      97.870    -895.900
  H     -569.688     103.790    -900.000
  H     -568.140      97.050    -898.360
  H     -569.704      95.602    -897.030
  H     -568.005      95.488    -896.480
  P     -565.104      99.057    -897.280
  C     -564.093      96.892    -898.310
  O     -564.444      97.594    -897.130
  O     -565.201      99.578    -895.780
  O     -564.359     100.009    -898.150
  H     -564.942     100.520    -895.740
  H     -563.670      95.944    -898.049
  H     -563.377      97.462    -898.864
  H     -564.967      96.740    -898.908

 6  7  8  9  10  11  12  13  14  15  26  29  33  34 0
 6-311+G(2d,p)
 ****
 36  38  39  40  41 0
 6-311+G(2d,p)
 ****
 1  2  3  4  5  16  17  18  19  20  21  22  23  24  25 0
 3-21G
 ****
 27  28  30  31  32  35  37  42  43  44  45  46  47 0
 3-21G
 ****
 48  49 0
 3-21G
 ****


