%nproc=1
%NoSave
%Mem=1900MB
#P OB98/GEN NMR

erre ene a

0 1
  C      -21.687      -1.146    -150.103
  O      -21.688      -2.106    -151.141
  H      -20.904      -0.410    -150.308
  H      -21.482      -1.615    -149.136
  H      -22.650      -0.629    -150.068
  P      -22.573      -3.433    -150.943
  C      -23.561      -5.180    -152.570
  O      -23.053      -3.854    -152.418
  C      -24.318      -5.327    -153.894
  O      -25.464      -4.451    -153.912
  C      -23.499      -4.937    -155.114
  O      -22.442      -5.826    -155.410
  C      -24.576      -4.674    -156.159
  O      -24.994      -5.847    -156.850
  C      -25.740      -4.133    -155.292
  N      -25.952      -2.705    -155.489
  C      -26.802      -2.360    -156.536
  O      -27.337      -3.184    -157.279
  N      -26.990      -1.020    -156.734
  C      -26.383      -0.015    -156.036
  O      -26.560       1.171    -156.290
  C      -25.472      -0.441    -154.958
  C      -25.303      -1.748    -154.737
  O      -23.691      -3.327    -149.948
  O      -21.495      -4.558    -150.580
  H      -24.197      -6.244    -157.251
  H      -21.927      -5.348    -150.177
  H      -27.610      -0.749    -157.482
  H      -24.974       0.328    -154.385
  H      -24.636      -2.089    -153.948
  H      -26.673      -4.652    -155.547
  H      -24.233      -3.964    -156.916
  H      -23.028      -3.967    -154.911
  H      -24.678      -6.360    -153.972
  H      -24.249      -5.370    -151.739
  H      -22.737      -5.898    -152.520
  P      -21.131      -5.395    -156.218
  C      -18.651      -6.173    -156.161
  O      -19.847      -5.947    -155.422
  O      -21.099      -3.998    -156.750
  O      -21.199      -6.394    -157.486
  H      -20.836      -5.913    -158.254
  H      -17.889      -6.537    -155.504
  H      -18.329      -5.256    -156.608
  H      -18.836      -6.897    -156.927

 6  7  8  9  10  11  12  13  14  15  16  26  31  32  33  34  35 0
 6-311+G(2d,p)
 ****
 36  37 0
 6-311+G(2d,p)
 ****
 1  2  3  4  5  17  18  19  20  21  22  23  24  25 0
 3-21G
 ****
 27  28  29  30  38  39  40  41  42  43  44  45 0
 3-21G
 ****


