%nproc=1
%NoSave
%Mem=1900MB
#P OB98/GEN NMR

erre ene a

0 1
  C      -87.902     117.189     372.184
  O      -86.679     116.631     372.625
  H      -87.702     118.175     371.755
  H      -88.591     117.304     373.025
  H      -88.348     116.554     371.414
  P      -86.758     115.190     373.325
  C      -86.378     116.585     375.473
  O      -87.082     115.512     374.863
  C      -87.313     117.399     376.364
  O      -88.231     118.158     375.561
  C      -88.162     116.564     377.312
  O      -87.427     116.235     378.481
  C      -89.293     117.533     377.621
  O      -88.867     118.465     378.633
  C      -89.487     118.267     376.281
  N      -94.312     118.977     374.683
  C      -93.597     119.567     375.663
  N      -92.340     119.292     376.071
  C      -91.809     118.294     375.341
  C      -92.422     117.596     374.312
  C      -93.731     117.976     373.979
  N      -94.459     117.368     372.978
  N      -91.572     116.637     373.798
  C      -90.452     116.797     374.466
  N      -90.553     117.762     375.436
  O      -85.602     114.283     373.070
  O      -88.169     114.663     372.779
  H      -88.085     118.928     378.281
  H      -88.824     115.382     372.775
  H      -94.104     120.366     376.197
  H      -89.529     116.256     374.276
  H      -89.686     119.336     376.432
  H      -90.184     117.032     378.003
  H      -88.574     115.677     376.815
  H      -86.699     118.119     376.925
  H      -85.939     117.234     374.705
  H      -95.445     117.570     372.941
  H      -94.072     116.542     372.548
  H      -85.564     116.153     376.066
  P      -86.764     114.786     378.662
  C      -87.639     115.057     381.065
  O      -87.466     114.171     379.966
  O      -85.275     114.784     378.667
  O      -87.384     113.917     377.474
  H      -86.851     113.107     377.339
  H      -88.114     114.537     381.871
  H      -88.249     115.883     380.764
  H      -86.684     115.417     381.387

 6  7  8  9  10  11  12  13  14  15  25  28  32  33  34  35 0
 6-311+G(2d,p)
 ****
 36  39  40 0
 6-311+G(2d,p)
 ****
 1  2  3  4  5  16  17  18  19  20  21  22  23  24 0
 3-21G
 ****
 26  27  29  30  31  37  38  41  42  43  44  45  46  47 0
 3-21G
 ****
 48 0
 3-21G
 ****


