%nproc=1
%NoSave
%Mem=1900MB
#P OB98/GEN NMR

erre ene a

0 1
  C     -251.453      95.883    -766.047
  O     -252.340      95.033    -765.346
  P     -253.037      93.793    -766.078
  C     -255.272      95.029    -766.236
  O     -254.248      94.365    -766.963
  C     -256.635      94.857    -766.914
  O     -257.623      95.626    -766.183
  C     -256.686      95.316    -768.382
  O     -257.598      94.442    -769.058
  C     -257.287      96.702    -768.282
  O     -257.863      97.146    -769.497
  C     -258.281      96.481    -767.151
  N     -261.315     100.585    -767.505
  C     -261.104      99.546    -768.340
  N     -260.268      98.505    -768.187
  C     -259.593      98.602    -767.022
  C     -259.681      99.623    -766.089
  C     -260.606     100.654    -766.356
  N     -260.856     101.697    -765.499
  N     -258.787      99.402    -765.049
  C     -258.187      98.261    -765.363
  N     -258.681      97.726    -766.513
  O     -253.395      92.651    -765.186
  O     -251.957      93.344    -767.176
  H     -257.151      97.389    -770.114
  H     -251.522      92.518    -766.893
  H     -261.701      99.545    -769.260
  H     -257.391      97.804    -764.794
  H     -259.192      95.970    -767.488
  H     -256.515      97.421    -767.993
  H     -255.706      95.302    -768.879
  H     -256.923      93.803    -766.834
  H     -255.022      96.092    -766.198
  H     -261.639     102.304    -765.730
  H     -260.551     101.624    -764.534
  H     -255.312      94.642    -765.213
  P     -257.514      94.263    -770.650
  C     -259.694      95.506    -771.160
  O     -258.284      95.520    -771.289
  O     -257.924      92.929    -771.168
  O     -255.976      94.582    -770.981
  H     -255.750      94.235    -771.869
  H     -260.125      94.851    -771.938
  H     -260.075      96.519    -771.296
  H     -260.002      95.137    -770.178
  H     -251.095      96.646    -765.388
  H     -251.967      96.334    -766.870
  H     -250.626      95.311    -766.413

 3  4  5  6  7  8  9  10  11  12  22  25  29  30  31  32 0
 6-311+G(2d,p)
 ****
 33  36  37 0
 6-311+G(2d,p)
 ****
 1  2  13  14  15  16  17  18  19  20  21  23  24  26 0
 3-21G
 ****
 27  28  34  35  38  39  40  41  42  43  44  45  46  47  48 0
 3-21G
 ****


