%nproc=1
%NoSave
%Mem=1900MB
#P OB98/GEN NMR

erre ene a

0 1
  C     -301.816     402.587    -312.942
  O     -302.805     402.191    -313.871
  H     -300.929     402.918    -313.488
  H     -301.544     401.730    -312.318
  H     -302.171     403.407    -312.314
  P     -304.307     402.048    -313.330
  C     -306.143     403.768    -312.683
  O     -304.753     403.505    -312.816
  C     -306.521     405.033    -313.456
  O     -305.697     406.136    -312.973
  C     -306.317     404.925    -314.976
  O     -307.365     405.646    -315.639
  C     -305.015     405.676    -315.191
  O     -304.882     406.166    -316.525
  C     -305.140     406.775    -314.140
  N     -301.206     408.973    -316.351
  C     -302.444     408.624    -316.861
  N     -302.649     408.837    -318.178
  N     -303.401     408.101    -316.136
  C     -303.071     407.962    -314.830
  C     -301.885     408.267    -314.206
  C     -300.824     408.823    -315.021
  O     -299.703     409.134    -314.634
  N     -301.925     407.913    -312.875
  C     -303.126     407.384    -312.705
  N     -303.855     407.392    -313.864
  O     -304.114     401.214    -311.976
  O     -305.262     401.381    -314.263
  H     -304.681     405.409    -317.106
  H     -304.245     400.263    -312.153
  H     -300.497     409.353    -316.956
  H     -303.500     406.970    -311.781
  H     -305.821     407.577    -314.451
  H     -304.159     405.022    -314.978
  H     -301.972     409.260    -318.793
  H     -306.280     403.894    -315.350
  H     -303.563     408.623    -318.558
  H     -307.561     405.283    -313.222
  H     -306.384     403.912    -311.625
  H     -306.706     402.908    -313.058
  P     -308.629     404.820    -316.176
  C     -310.680     403.771    -314.962
  O     -309.781     404.865    -315.065
  O     -308.119     403.303    -316.109
  O     -309.053     405.195    -317.553
  H     -308.504     402.792    -316.844
  H     -311.382     403.959    -314.177
  H     -310.132     402.878    -314.745
  H     -311.204     403.651    -315.887

 6  7  8  9  10  11  12  13  14  15  26  29  33  34 0
 6-311+G(2d,p)
 ****
 36  38  39  40  41 0
 6-311+G(2d,p)
 ****
 1  2  3  4  5  16  17  18  19  20  21  22  23  24  25 0
 3-21G
 ****
 27  28  30  31  32  35  37  42  43  44  45  46  47 0
 3-21G
 ****
 48  49 0
 3-21G
 ****


