%nproc=1
%NoSave
%Mem=1900MB
#P OB98/GEN NMR

erre ene a

0 1
  C      -39.560     510.798    -190.740
  O      -39.220     512.108    -190.316
  P      -39.651     513.344    -191.261
  C      -37.161     514.208    -191.230
  O      -38.289     513.827    -191.981
  C      -35.943     514.398    -192.139
  O      -35.676     513.172    -192.852
  C      -36.129     515.467    -193.222
  O      -36.002     516.774    -192.696
  C      -35.047     515.069    -194.227
  O      -33.755     515.538    -193.785
  C      -35.107     513.517    -194.133
  N      -35.828     512.898    -195.244
  C      -35.322     513.113    -196.516
  O      -34.302     513.786    -196.736
  N      -36.027     512.537    -197.524
  C      -37.194     511.855    -197.428
  O      -37.824     511.403    -198.395
  C      -37.706     511.682    -196.059
  C      -37.007     512.210    -195.050
  O      -39.957     514.465    -190.172
  O      -40.787     513.011    -192.174
  H      -39.443     514.322    -189.351
  H      -33.689     515.317    -192.831
  H      -35.656     512.665    -198.470
  H      -38.648     511.149    -195.933
  H      -37.368     512.104    -194.026
  H      -34.068     513.114    -194.131
  H      -35.228     515.469    -195.223
  H      -37.122     515.359    -193.688
  H      -35.074     514.628    -191.504
  H      -36.942     513.423    -190.485
  H      -37.382     515.129    -190.683
  P      -37.203     517.804    -193.001
  C      -35.856     519.647    -191.720
  O      -36.572     519.277    -192.885
  O      -38.105     517.640    -191.679
  O      -37.925     517.505    -194.286
  H      -37.560     517.604    -190.876
  H      -35.223     520.518    -191.955
  H      -35.222     518.828    -191.362
  H      -36.563     519.937    -190.940
  H      -39.213     510.088    -190.019
  H      -39.101     510.599    -191.686
  H      -40.623     510.719    -190.835

 3  4  5  6  7  8  9  10  11  12  13  24  28  29  30  31  32 0
 6-311+G(2d,p)
 ****
 33  34 0
 6-311+G(2d,p)
 ****
 1  2  14  15  16  17  18  19  20  21  22  23  25  26  27 0
 3-21G
 ****
 35  36  37  38  39  40  41  42  43  44  45 0
 3-21G
 ****


