%nproc=1
%NoSave
%Mem=1900MB
#P OB98/GEN NMR

erre ene a

0 1
  C      459.964    -913.108     -70.895
  O      458.773    -913.405     -71.588
  H      459.824    -913.357     -69.838
  H      460.181    -912.036     -70.975
  H      460.809    -913.688     -71.279
  P      458.834    -913.576     -73.175
  C      457.970    -916.017     -73.094
  O      459.019    -915.143     -73.514
  C      458.464    -917.034     -72.066
  O      458.711    -916.380     -70.811
  C      457.432    -918.136     -71.806
  O      457.504    -919.243     -72.700
  C      457.800    -918.555     -70.374
  O      458.798    -919.593     -70.375
  C      458.329    -917.270     -69.749
  N      455.341    -917.648     -65.626
  C      456.026    -918.662     -66.295
  N      455.843    -919.906     -65.830
  N      456.778    -918.444     -67.347
  C      456.769    -917.145     -67.751
  C      456.140    -916.079     -67.168
  C      455.358    -916.312     -65.969
  O      454.761    -915.463     -65.331
  N      456.343    -914.909     -67.884
  C      457.020    -915.310     -68.930
  N      457.386    -916.631     -68.854
  O      460.274    -912.971     -73.562
  O      457.746    -912.887     -73.945
  H      458.495    -920.305     -70.970
  H      460.234    -912.582     -74.449
  H      454.794    -917.894     -64.804
  H      457.323    -914.671     -69.762
  H      459.243    -917.476     -69.157
  H      456.920    -918.974     -69.863
  H      455.194    -920.156     -65.094
  H      456.414    -917.722     -71.781
  H      456.152    -920.693     -66.408
  H      459.415    -917.466     -72.405
  H      457.622    -916.528     -74.001
  H      457.131    -915.439     -72.692
  P      456.189    -919.815     -73.399
  C      457.326    -920.016     -75.762
  O      456.276    -919.501     -74.953
  O      455.035    -918.811     -72.881
  O      455.865    -921.246     -73.097
  H      454.563    -919.199     -72.148
  H      457.194    -919.685     -76.771
  H      457.307    -921.085     -75.732
  H      458.267    -919.665     -75.392

 6  7  8  9  10  11  12  13  14  15  26  29  33  34 0
 6-311+G(2d,p)
 ****
 36  38  39  40  41 0
 6-311+G(2d,p)
 ****
 1  2  3  4  5  16  17  18  19  20  21  22  23  24  25 0
 3-21G
 ****
 27  28  30  31  32  35  37  42  43  44  45  46  47 0
 3-21G
 ****
 48  49 0
 3-21G
 ****


