%nproc=1
%NoSave
%Mem=1900MB
#P OB98/GEN NMR

erre ene a

0 1
  C      142.956       4.636    -145.349
  O      143.103       4.821    -143.961
  P      143.764       6.113    -143.303
  C      146.092       5.072    -142.723
  O      144.874       5.636    -142.250
  C      146.817       4.307    -141.601
  O      147.122       5.241    -140.532
  C      145.919       3.211    -140.995
  O      146.599       1.993    -140.727
  C      145.266       3.920    -139.816
  O      144.750       3.031    -138.836
  C      146.387       4.848    -139.356
  N      144.792       6.851    -134.961
  C      145.380       5.623    -135.195
  N      145.372       4.756    -134.158
  N      145.890       5.277    -136.347
  C      145.720       6.201    -137.318
  C      145.152       7.451    -137.206
  C      144.625       7.838    -135.920
  O      143.991       8.870    -135.699
  N      145.090       8.097    -138.416
  C      145.582       7.220    -139.271
  N      145.949       6.044    -138.652
  O      142.838       7.215    -142.900
  O      144.674       6.668    -144.521
  H      144.355       3.578    -138.126
  H      144.678       7.644    -144.456
  H      144.343       7.032    -134.071
  H      145.673       7.369    -140.338
  H      147.075       4.341    -138.678
  H      144.417       4.494    -140.207
  H      144.860       4.942    -133.307
  H      145.145       2.918    -141.708
  H      145.570       3.780    -134.372
  H      147.765       3.916    -141.983
  H      146.707       5.910    -143.065
  H      145.909       4.416    -143.579
  P      146.145       0.499    -141.064
  C      145.801      -0.121    -138.598
  O      146.472      -0.433    -139.802
  O      147.195      -0.010    -142.162
  O      144.756       0.372    -141.584
  H      146.728      -0.548    -142.833
  H      146.303      -0.634    -137.771
  H      144.767      -0.472    -138.652
  H      145.813       0.959    -138.411
  H      142.486       3.693    -145.535
  H      143.919       4.652    -145.815
  H      142.352       5.422    -145.752

 3  4  5  6  7  8  9  10  11  12  23  26  30  31 0
 6-311+G(2d,p)
 ****
 33  35  36  37  38 0
 6-311+G(2d,p)
 ****
 1  2  13  14  15  16  17  18  19  20  21  22  24  25 0
 3-21G
 ****
 27  28  29  32  34  39  40  41  42  43  44  45  46  47  48  49 0
 3-21G
 ****


