%nproc=1
%NoSave
%Mem=1900MB
#P OB98/GEN NMR

erre ene a

0 1
  C      -58.156    -657.813     162.448
  O      -58.184    -656.873     161.385
  H      -57.116    -657.990     162.721
  H      -58.604    -658.754     162.121
  H      -58.693    -657.419     163.315
  P      -59.631    -656.328     160.947
  C      -59.670    -657.790     158.758
  O      -60.258    -657.474     160.013
  C      -60.720    -658.359     157.804
  O      -61.744    -657.354     157.579
  C      -60.161    -658.768     156.440
  O      -60.841    -659.948     156.000
  C      -60.515    -657.601     155.537
  O      -60.573    -657.978     154.157
  C      -61.850    -657.131     156.153
  N      -62.134    -655.731     155.852
  C      -62.800    -655.473     154.642
  O      -63.085    -656.395     153.877
  N      -63.074    -654.171     154.308
  C      -62.671    -653.205     155.073
  N      -62.955    -651.941     154.672
  C      -61.923    -653.428     156.334
  C      -61.706    -654.703     156.663
  O      -59.239    -655.168     159.912
  O      -60.496    -655.885     162.087
  H      -60.831    -657.181     153.641
  H      -58.510    -655.411     159.320
  H      -61.597    -652.588     156.931
  H      -61.169    -654.954     157.577
  H      -62.676    -657.748     155.782
  H      -59.760    -656.810     155.636
  H      -59.090    -658.950     156.452
  H      -61.223    -659.204     158.295
  H      -63.459    -651.821     153.796
  H      -58.866    -658.519     158.891
  H      -62.640    -651.109     155.167
  H      -59.240    -656.874     158.348
  P      -59.984    -661.201     155.489
  C      -59.971    -661.124     152.911
  O      -59.263    -660.820     154.105
  O      -60.701    -662.510     155.484
  O      -58.755    -661.234     156.519
  H      -58.547    -662.177     156.714
  H      -59.389    -660.824     152.065
  H      -60.904    -660.600     152.906
  H      -60.153    -662.177     152.863

 6  7  8  9  10  11  12  13  14  15  16  26  30  31  32  33  35 0
 6-311+G(2d,p)
 ****
 37  38 0
 6-311+G(2d,p)
 ****
 1  2  3  4  5  17  18  19  20  21  22  23  24  25 0
 3-21G
 ****
 27  28  29  34  36  39  40  41  42  43  44  45  46 0
 3-21G
 ****


