%nproc=1
%NoSave
%Mem=1900MB
#P OB98/GEN NMR

erre ene a

0 1
  C      -30.339      -6.176     -78.213
  O      -30.990      -6.063     -76.960
  P      -31.339      -7.424     -76.180
  C      -33.691      -7.615     -77.265
  O      -32.409      -8.204     -77.087
  C      -34.764      -8.679     -77.508
  O      -34.382      -9.477     -78.655
  C      -34.985      -9.624     -76.325
  O      -36.379      -9.923     -76.259
  C      -34.231     -10.878     -76.729
  O      -34.741     -12.036     -76.071
  C      -34.420     -10.863     -78.255
  N      -33.399     -11.646     -78.944
  C      -33.793     -12.309     -80.110
  O      -34.971     -12.280     -80.468
  N      -32.856     -13.026     -80.813
  C      -31.659     -13.160     -80.332
  N      -30.767     -13.879     -81.066
  C      -31.238     -12.580     -79.041
  C      -32.142     -11.826     -78.419
  O      -32.210      -6.913     -74.940
  O      -30.149      -8.217     -75.749
  H      -34.921     -11.799     -75.135
  H      -32.072      -7.484     -74.158
  H      -30.239     -12.754     -78.669
  H      -31.914     -11.341     -77.478
  H      -35.406     -11.260     -78.526
  H      -33.170     -10.774     -76.473
  H      -34.652      -9.200     -75.374
  H      -35.700      -8.168     -77.766
  H      -31.084     -14.279     -81.940
  H      -33.661      -6.956     -78.137
  H      -29.812     -14.038     -80.771
  H      -33.938      -7.009     -76.388
  P      -37.131      -9.671     -74.865
  C      -36.794     -12.198     -74.560
  O      -36.734     -10.924     -73.946
  O      -38.648     -10.023     -75.250
  O      -37.033      -8.319     -74.242
  H      -39.230      -9.846     -74.489
  H      -36.371     -12.936     -73.875
  H      -36.216     -12.206     -75.487
  H      -37.835     -12.464     -74.765
  H      -30.169      -5.199     -78.616
  H      -30.954      -6.737     -78.885
  H      -29.402      -6.676     -78.084

 3  4  5  6  7  8  9  10  11  12  13  21  23  27  28  29  30  32 0
 6-311+G(2d,p)
 ****
 34  35 0
 6-311+G(2d,p)
 ****
 1  2  14  15  16  17  18  19  20  22  24  25  26 0
 3-21G
 ****
 31  33  36  37  38  39  40  41  42  43  44  45  46 0
 3-21G
 ****


