%nproc=1
%NoSave
%Mem=1900MB
#P OB98/GEN NMR

erre ene a

0 1
  C     -271.271     -90.881     115.661
  O     -270.445     -89.866     116.243
  P     -269.144     -90.261     117.098
  C     -267.132     -90.669     115.566
  O     -267.835     -89.705     116.344
  C     -265.899     -90.097     114.852
  O     -266.283     -89.128     113.844
  C     -264.883     -89.407     115.774
  O     -263.597     -89.654     115.190
  C     -265.268     -87.945     115.641
  O     -264.228     -87.065     116.056
  C     -265.644     -87.875     114.153
  N     -266.501     -86.733     113.849
  C     -265.867     -85.534     113.516
  O     -264.637     -85.451     113.542
  N     -266.637     -84.439     113.209
  C     -267.930     -84.512     113.323
  N     -268.644     -83.390     113.028
  C     -268.639     -85.732     113.755
  C     -267.871     -86.799     113.990
  O     -269.069     -91.699     117.495
  O     -269.241     -89.322     118.396
  H     -264.637     -86.210     116.313
  H     -268.826     -89.776     119.157
  H     -269.716     -85.738     113.864
  H     -268.298     -87.742     114.304
  H     -264.739     -87.804     113.530
  H     -266.150     -87.737     116.264
  H     -264.919     -89.763     116.804
  H     -265.414     -90.924     114.321
  H     -268.117     -82.564     112.760
  H     -267.819     -91.079     114.817
  H     -269.635     -83.304     113.194
  H     -266.833     -91.500     116.216
  P     -262.590     -90.749     115.785
  C     -263.712     -92.941     115.083
  O     -262.666     -92.022     114.817
  O     -262.784     -91.053     117.236
  O     -261.124     -90.157     115.503
  H     -260.480     -90.616     116.076
  H     -263.796     -93.640     114.246
  H     -264.667     -92.418     115.204
  H     -263.492     -93.503     115.996
  H     -272.082     -90.423     115.135
  H     -271.658     -91.512     116.433
  H     -270.690     -91.467     114.980

 3  4  5  6  7  8  9  10  11  12  13  23  27  28  29  30  32 0
 6-311+G(2d,p)
 ****
 34  35 0
 6-311+G(2d,p)
 ****
 1  2  14  15  16  17  18  19  20  21  22  24  25  26 0
 3-21G
 ****
 31  33  36  37  38  39  40  41  42  43  44  45  46 0
 3-21G
 ****


