%nproc=1
%NoSave
%Mem=1900MB
#P OB98/GEN NMR

erre ene a

0 1
  C     -395.172    -226.972      83.642
  O     -395.478    -225.593      83.619
  H     -396.109    -227.540      83.623
  H     -394.634    -227.215      84.563
  H     -394.569    -227.260      82.777
  P     -394.306    -224.545      83.314
  C     -394.283    -222.133      82.394
  O     -394.990    -223.105      83.152
  C     -395.247    -221.110      81.772
  O     -395.781    -221.660      80.538
  C     -396.446    -220.838      82.691
  O     -396.985    -219.534      82.501
  C     -397.468    -221.872      82.228
  O     -398.808    -221.514      82.548
  C     -397.178    -221.926      80.727
  N     -400.892    -224.840      78.786
  C     -400.993    -223.656      79.493
  N     -402.242    -223.184      79.708
  N     -399.961    -223.004      79.963
  C     -398.778    -223.628      79.737
  C     -398.552    -224.812      79.077
  C     -399.698    -225.509      78.524
  O     -399.669    -226.571      77.916
  N     -397.214    -225.129      79.054
  C     -396.631    -224.151      79.702
  N     -397.530    -223.197      80.124
  O     -393.870    -224.894      81.809
  O     -393.137    -224.593      84.252
  H     -398.936    -221.672      83.500
  H     -392.962    -224.581      81.640
  H     -401.718    -225.288      78.419
  H     -395.570    -224.068      79.892
  H     -397.746    -221.134      80.202
  H     -397.253    -222.819      82.736
  H     -403.062    -223.752      79.534
  H     -396.210    -220.978      83.748
  H     -402.350    -222.505      80.471
  H     -394.707    -220.194      81.507
  H     -393.733    -222.672      81.613
  H     -393.540    -221.632      83.015
  P     -397.091    -218.553      83.765
  C     -398.159    -216.173      84.205
  O     -398.106    -217.357      83.448
  O     -395.659    -217.845      83.820
  O     -397.422    -219.250      85.058
  H     -395.190    -218.088      84.639
  H     -398.912    -215.527      83.804
  H     -397.209    -215.682      84.166
  H     -398.396    -216.410      85.221

 6  7  8  9  10  11  12  13  14  15  26  29  33  34 0
 6-311+G(2d,p)
 ****
 36  38  39  40  41 0
 6-311+G(2d,p)
 ****
 1  2  3  4  5  16  17  18  19  20  21  22  23  24  25 0
 3-21G
 ****
 27  28  30  31  32  35  37  42  43  44  45  46  47 0
 3-21G
 ****
 48  49 0
 3-21G
 ****


