%nproc=1
%NoSave
%Mem=1900MB
#P OB98/GEN NMR

erre ene a

0 1
  C     -625.645     979.694    1729.237
  O     -626.288     978.429    1729.056
  P     -626.164     977.372    1730.255
  C     -624.524     975.700    1729.133
  O     -624.723     976.661    1730.151
  C     -623.058     975.719    1728.670
  O     -622.189     975.180    1729.705
  C     -622.802     974.870    1727.437
  O     -623.276     975.513    1726.271
  C     -621.284     974.723    1727.497
  O     -620.650     975.897    1727.003
  C     -621.042     974.585    1729.016
  N     -618.240     970.337    1728.535
  C     -618.150     971.535    1727.951
  N     -618.933     972.625    1728.124
  C     -619.896     972.370    1729.026
  C     -620.133     971.181    1729.705
  C     -619.232     970.116    1729.419
  N     -619.358     968.870    1730.007
  N     -621.210     971.302    1730.547
  C     -621.653     972.529    1730.367
  N     -620.890     973.198    1729.469
  O     -627.200     976.210    1729.850
  O     -626.527     977.957    1731.604
  H     -619.688     975.750    1727.010
  H     -627.987     976.229    1730.422
  H     -617.326     971.659    1727.240
  H     -622.528     972.933    1730.848
  H     -620.159     975.141    1729.332
  H     -620.915     973.865    1726.896
  H     -623.278     973.874    1727.540
  H     -622.778     976.765    1728.484
  H     -625.180     975.916    1728.285
  H     -618.729     968.139    1729.700
  H     -620.131     968.679    1730.620
  H     -624.801     974.707    1729.516
  P     -624.604     974.895    1725.566
  C     -622.944     973.873    1723.881
  O     -624.046     973.634    1724.748
  O     -624.874     975.975    1724.397
  O     -625.740     974.631    1726.484
  H     -624.049     976.200    1723.932
  H     -622.624     972.915    1723.424
  H     -622.086     974.288    1724.456
  H     -623.238     974.573    1723.096
  H     -625.803     980.302    1728.371
  H     -624.595     979.543    1729.380
  H     -626.056     980.183    1730.095

 3  4  5  6  7  8  9  10  11  12  22  25  29  30  31  32 0
 6-311+G(2d,p)
 ****
 33  36  37 0
 6-311+G(2d,p)
 ****
 1  2  13  14  15  16  17  18  19  20  21  23  24  26 0
 3-21G
 ****
 27  28  34  35  38  39  40  41  42  43  44  45  46  47  48 0
 3-21G
 ****


