%nproc=1
%NoSave
%Mem=1900MB
#P OB98/GEN NMR

erre ene a

0 1
  C      498.915     223.370      22.057
  O      500.070     224.070      21.648
  H      498.086     223.648      21.411
  H      498.667     223.653      23.090
  H      499.076     222.286      21.996
  P      501.488     223.542      22.186
  C      501.481     224.873      24.412
  O      501.427     223.597      23.791
  C      501.416     224.728      25.939
  O      500.112     224.199      26.299
  C      502.481     223.780      26.517
  O      502.918     224.282      27.791
  C      501.681     222.500      26.779
  O      502.290     221.671      27.764
  C      500.331     223.080      27.186
  N      498.527     218.953      29.408
  C      499.497     219.848      29.825
  N      500.117     219.577      30.996
  N      499.817     220.934      29.159
  C      499.105     221.089      28.013
  C      498.135     220.272      27.480
  C      497.797     219.079      28.233
  O      496.970     218.218      27.885
  N      497.699     220.754      26.274
  C      498.407     221.836      26.064
  N      499.287     222.088      27.101
  O      502.479     224.742      21.806
  O      501.947     222.241      21.612
  H      502.492     222.222      28.554
  H      502.905     224.562      20.942
  H      498.335     218.128      29.957
  H      498.360     222.467      25.180
  H      500.335     223.463      28.222
  H      501.603     221.915      25.844
  H      499.905     218.796      31.593
  H      503.346     223.613      25.874
  H      500.790     220.251      31.341
  H      501.501     225.725      26.392
  H      500.632     225.479      24.077
  H      502.402     225.385      24.123
  P      504.485     224.561      27.992
  C      505.258     222.732      29.679
  O      505.202     223.170      28.325
  O      504.550     225.353      29.380
  O      505.105     225.351      26.878
  H      505.275     226.016      29.350
  H      505.766     221.792      29.729
  H      504.264     222.621      30.059
  H      505.786     223.454      30.266

 6  7  8  9  10  11  12  13  14  15  26  29  33  34 0
 6-311+G(2d,p)
 ****
 36  38  39  40  41 0
 6-311+G(2d,p)
 ****
 1  2  3  4  5  16  17  18  19  20  21  22  23  24  25 0
 3-21G
 ****
 27  28  30  31  32  35  37  42  43  44  45  46  47 0
 3-21G
 ****
 48  49 0
 3-21G
 ****


