%nproc=1
%NoSave
%Mem=1900MB
#P OB98/GEN NMR

erre ene a

0 1
  C       22.161      21.435      43.922
  O       21.822      20.078      44.240
  P       21.485      18.968      43.130
  C       22.856      17.170      41.870
  O       22.871      18.436      42.520
  C       24.125      16.971      41.038
  O       24.196      17.964      39.987
  C       25.432      17.139      41.796
  O       25.705      16.045      42.653
  C       26.426      17.299      40.647
  O       26.845      16.025      40.137
  C       25.585      18.038      39.588
  N       26.001      19.416      39.393
  C       27.260      19.617      38.821
  O       27.995      18.660      38.581
  N       27.660      20.902      38.551
  C       26.918      21.900      38.918
  N       27.357      23.149      38.608
  C       25.646      21.734      39.647
  C       25.251      20.478      39.847
  O       20.510      19.424      42.095
  O       20.916      17.714      43.946
  H       20.324      17.193      43.372
  H       26.043      15.578      39.801
  H       25.078      22.593      39.972
  H       24.320      20.266      40.362
  H       25.637      17.508      38.629
  H       27.328      17.836      40.954
  H       25.397      18.069      42.377
  H       24.076      15.976      40.575
  H       28.228      23.227      38.099
  H       21.986      17.133      41.204
  H       26.844      23.991      38.828
  H       22.752      16.381      42.621
  P       25.357      16.236      44.207
  C       23.324      15.748      45.744
  O       23.840      15.772      44.428
  O       25.302      17.827      44.389
  O       26.345      15.618      45.142
  H       25.696      18.072      45.246
  H       22.242      15.898      45.698
  H       23.765      16.532      46.366
  H       23.525      14.773      46.192
  H       22.342      21.979      44.826
  H       21.352      21.889      43.388
  H       23.042      21.450      43.315

 3  4  5  6  7  8  9  10  11  12  13  24  27  28  29  30  32 0
 6-311+G(2d,p)
 ****
 34  35 0
 6-311+G(2d,p)
 ****
 1  2  14  15  16  17  18  19  20  21  22  23  25  26 0
 3-21G
 ****
 31  33  36  37  38  39  40  41  42  43  44  45  46 0
 3-21G
 ****


