%nproc=1
%NoSave
%Mem=1900MB
#P OB98/GEN NMR

erre ene a

0 1
  C     -659.726    -941.297     201.437
  O     -660.651    -940.245     201.190
  P     -660.075    -938.747     201.117
  C     -661.628    -937.828     202.993
  O     -660.290    -938.128     202.582
  C     -661.618    -936.880     204.194
  O     -661.184    -937.595     205.379
  C     -660.672    -935.713     204.068
  O     -661.253    -934.637     203.319
  C     -660.518    -935.303     205.532
  O     -661.668    -934.546     205.943
  C     -660.489    -936.643     206.240
  N     -656.046    -935.593     208.559
  C     -657.191    -934.864     208.432
  N     -658.329    -935.227     207.782
  C     -658.200    -936.437     207.206
  C     -657.096    -937.263     207.223
  C     -655.972    -936.806     207.957
  N     -654.820    -937.554     208.122
  N     -657.325    -938.425     206.546
  C     -658.584    -938.303     206.103
  N     -659.151    -937.125     206.497
  O     -661.172    -937.978     200.227
  O     -658.698    -938.622     200.544
  H     -661.537    -934.325     206.897
  H     -660.776    -937.211     199.811
  H     -657.196    -933.900     208.899
  H     -659.094    -939.052     205.514
  H     -661.030    -936.613     207.200
  H     -659.638    -934.663     205.710
  H     -659.693    -936.004     203.672
  H     -662.656    -936.539     204.379
  H     -662.136    -938.759     203.269
  H     -654.155    -937.232     208.802
  H     -654.843    -938.529     207.849
  H     -662.159    -937.363     202.157
  P     -660.244    -933.717     202.488
  C     -660.996    -931.664     203.882
  O     -659.915    -932.469     203.430
  O     -661.179    -933.097     201.343
  O     -659.054    -934.436     201.913
  H     -660.648    -932.852     200.551
  H     -660.656    -931.078     204.757
  H     -661.852    -932.277     204.195
  H     -661.305    -930.969     203.098
  H     -660.246    -942.232     201.459
  H     -659.244    -941.135     202.379
  H     -658.991    -941.316     200.659

 3  4  5  6  7  8  9  10  11  12  22  25  29  30  31  32 0
 6-311+G(2d,p)
 ****
 33  36  37 0
 6-311+G(2d,p)
 ****
 1  2  13  14  15  16  17  18  19  20  21  23  24  26 0
 3-21G
 ****
 27  28  34  35  38  39  40  41  42  43  44  45  46  47  48 0
 3-21G
 ****


