%nproc=1
%NoSave
%Mem=1900MB
#P OB98/GEN NMR

erre ene a

0 1
  C      475.429    -898.690     291.473
  O      475.254    -898.080     292.740
  P      476.500    -898.030     293.745
  C      477.620    -895.850     292.866
  O      477.701    -897.260     292.996
  C      478.933    -895.290     292.326
  O      480.004    -895.560     293.277
  C      479.360    -895.890     290.977
  O      480.033    -894.860     290.237
  C      480.361    -896.950     291.390
  O      481.227    -897.350     290.340
  C      481.053    -896.230     292.553
  N      481.813    -897.140     293.416
  C      482.935    -897.750     292.867
  O      483.327    -897.570     291.713
  N      483.583    -898.640     293.680
  C      483.181    -899.050     294.920
  O      483.744    -899.930     295.544
  C      481.988    -898.370     295.445
  C      481.368    -897.460     294.677
  O      476.999    -899.550     293.788
  O      476.187    -897.510     295.107
  H      481.612    -896.540     289.952
  H      476.671    -900.000     294.597
  H      484.416    -899.090     293.307
  H      481.647    -898.650     296.439
  H      480.471    -896.970     295.045
  H      481.725    -895.460     292.167
  H      479.823    -897.850     291.741
  H      478.532    -896.300     290.390
  H      478.843    -894.200     292.249
  H      477.419    -895.410     293.842
  H      476.785    -895.590     292.203
  P      480.472    -895.180     288.724
  C      479.070    -893.380     287.439
  O      479.246    -894.740     287.796
  O      480.409    -896.780     288.723
  O      481.816    -894.630     288.359
  H      479.622    -897.130     289.183
  H      480.026    -892.870     287.311
  H      478.487    -892.880     288.207
  H      478.517    -893.330     286.492
  H      474.511    -898.643     290.925
  H      475.713    -899.713     291.606
  H      476.195    -898.175     290.932

 3  4  5  6  7  8  9  10  11  12  13  23  28  29  30  31  32 0
 6-311+G(2d,p)
 ****
 33  34 0
 6-311+G(2d,p)
 ****
 1  2  14  15  16  17  18  19  20  21  22  24  25  26 0
 3-21G
 ****
 27  35  36  37  38  39  40  41  42  43  44  45 0
 3-21G
 ****


