%nproc=1
%NoSave
%Mem=1900MB
#P OB98/GEN NMR

erre ene a

0 1
  C     -190.503    -126.988      62.371
  O     -190.816    -125.954      61.459
  H     -190.994    -127.909      62.041
  H     -190.879    -126.728      63.364
  H     -189.423    -127.160      62.412
  P     -189.963    -124.601      61.569
  C     -191.834    -123.353      62.858
  O     -190.492    -123.812      62.869
  C     -191.941    -122.006      63.574
  O     -191.428    -122.154      64.924
  C     -191.151    -120.880      62.894
  O     -191.901    -119.665      62.988
  C     -189.894    -120.769      63.743
  O     -189.300    -119.472      63.674
  C     -190.429    -121.136      65.125
  N     -187.823    -120.108      69.317
  C     -188.908    -119.458      68.760
  N     -189.361    -118.365      69.409
  N     -189.495    -119.845      67.655
  C     -188.955    -120.976      67.131
  C     -187.883    -121.706      67.587
  C     -187.222    -121.252      68.796
  O     -186.245    -121.770      69.325
  N     -187.619    -122.770      66.761
  C     -188.531    -122.682      65.809
  N     -189.367    -121.613      65.995
  O     -190.514    -123.723      60.347
  O     -188.481    -124.769      61.494
  H     -188.961    -119.352      62.759
  H     -189.801    -123.576      59.698
  H     -187.401    -119.756      70.163
  H     -188.624    -123.352      64.962
  H     -190.904    -120.283      65.631
  H     -189.154    -121.503      63.404
  H     -188.988    -118.037      70.288
  H     -190.922    -121.089      61.846
  H     -190.178    -117.894      69.037
  H     -193.001    -121.743      63.665
  H     -192.466    -124.090      63.370
  H     -192.175    -123.254      61.822
  P     -192.483    -119.063      61.616
  C     -191.504    -116.664      61.523
  O     -191.421    -117.998      61.044
  O     -193.703    -118.148      62.106
  O     -192.934    -120.102      60.642
  H     -194.550    -118.572      61.868
  H     -190.743    -116.071      61.061
  H     -191.367    -116.657      62.584
  H     -192.465    -116.259      61.285

 6  7  8  9  10  11  12  13  14  15  26  29  33  34 0
 6-311+G(2d,p)
 ****
 36  38  39  40  41 0
 6-311+G(2d,p)
 ****
 1  2  3  4  5  16  17  18  19  20  21  22  23  24  25 0
 3-21G
 ****
 27  28  30  31  32  35  37  42  43  44  45  46  47 0
 3-21G
 ****
 48  49 0
 3-21G
 ****


