%nproc=1
%NoSave
%Mem=1900MB
#P OB98/GEN NMR

erre ene a

0 1
  C       30.997    -318.814      66.116
  O       30.183    -317.948      66.914
  P       30.934    -316.902      67.868
  C       31.137    -315.088      66.012
  O       31.806    -315.916      66.956
  C       31.421    -313.614      66.306
  O       32.829    -313.325      66.204
  C       30.748    -312.667      65.328
  O       29.377    -312.521      65.639
  C       31.561    -311.390      65.512
  O       31.007    -310.551      66.538
  C       32.953    -311.919      65.926
  N       33.971    -311.665      64.921
  C       34.892    -310.656      65.223
  O       34.796    -310.026      66.277
  N       35.876    -310.372      64.311
  C       35.922    -311.022      63.188
  N       36.918    -310.693      62.323
  C       34.954    -312.075      62.820
  C       34.014    -312.343      63.725
  O       32.037    -317.800      68.600
  O       30.034    -316.226      68.851
  H       31.045    -311.085      67.360
  H       32.196    -317.471      69.502
  H       35.028    -312.580      61.870
  H       33.259    -313.100      63.540
  H       33.277    -311.443      66.861
  H       31.580    -310.794      64.593
  H       30.871    -313.039      64.302
  H       31.090    -313.394      67.331
  H       37.561    -309.964      62.607
  H       30.060    -315.272      66.045
  H       37.042    -311.127      61.419
  H       31.472    -315.359      65.005
  P       28.398    -312.018      64.478
  C       27.549    -314.323      63.736
  O       28.366    -313.215      63.410
  O       29.304    -310.931      63.723
  O       27.078    -311.456      64.889
  H       28.781    -310.472      63.041
  H       27.451    -314.959      62.852
  H       26.555    -313.995      64.045
  H       28.018    -314.906      64.535
  H       30.370    -319.455      65.532
  H       31.618    -319.407      66.754
  H       31.611    -318.227      65.465

 3  4  5  6  7  8  9  10  11  12  13  21  23  27  28  29  30  32 0
 6-311+G(2d,p)
 ****
 34  35 0
 6-311+G(2d,p)
 ****
 1  2  14  15  16  17  18  19  20  22  24  25  26 0
 3-21G
 ****
 31  33  36  37  38  39  40  41  42  43  44  45  46 0
 3-21G
 ****


