%nproc=1
%NoSave
%Mem=1900MB
#P OB98/GEN NMR

erre ene a

0 1
  C     -105.344     501.794    -155.413
  O     -105.701     503.156    -155.233
  P     -106.973     503.698    -156.044
  C     -108.529     504.240    -154.027
  O     -108.251     503.378    -155.131
  C     -109.337     503.501    -152.965
  O     -108.529     502.480    -152.354
  C     -109.813     504.391    -151.826
  O     -110.930     505.159    -152.218
  C     -110.121     503.354    -150.748
  O     -111.461     502.848    -150.890
  C     -109.081     502.243    -151.034
  N     -108.027     502.190    -150.032
  C     -108.324     501.446    -148.883
  O     -109.426     500.898    -148.765
  N     -107.380     501.372    -147.882
  C     -106.252     501.988    -148.023
  N     -105.354     501.879    -147.004
  C     -105.911     502.804    -149.202
  C     -106.835     502.870    -150.157
  O     -107.107     502.659    -157.252
  O     -106.855     505.113    -156.519
  H     -112.046     503.609    -150.716
  H     -107.547     503.072    -158.021
  H     -104.952     503.308    -149.266
  H     -106.676     503.442    -151.057
  H     -109.564     501.257    -151.070
  H     -110.049     503.770    -149.740
  H     -108.997     505.043    -151.479
  H     -110.195     503.014    -153.460
  H     -105.622     501.319    -146.199
  H     -109.108     505.094    -154.381
  H     -104.433     502.304    -147.022
  H     -107.585     504.602    -153.615
  P     -110.664     506.624    -152.798
  C     -112.033     506.305    -154.941
  O     -110.744     506.454    -154.393
  O     -109.088     506.798    -152.557
  O     -111.451     507.745    -152.210
  H     -108.814     507.708    -152.782
  H     -111.959     506.355    -156.033
  H     -112.700     507.089    -154.592
  H     -112.444     505.322    -154.665
  H     -104.484     501.569    -154.817
  H     -105.120     501.617    -156.444
  H     -106.159     501.169    -155.113

 3  4  5  6  7  8  9  10  11  12  13  21  23  27  28  29  30  32 0
 6-311+G(2d,p)
 ****
 34  35 0
 6-311+G(2d,p)
 ****
 1  2  14  15  16  17  18  19  20  22  24  25  26 0
 3-21G
 ****
 31  33  36  37  38  39  40  41  42  43  44  45  46 0
 3-21G
 ****


