%nproc=1
%NoSave
%Mem=1900MB
#P OB98/GEN NMR

erre ene a

0 1
  C      121.881     -24.605     -14.451
  O      120.712     -23.799     -14.621
  P      119.301     -24.509     -14.347
  C      119.448     -24.454     -11.753
  O      118.763     -24.016     -12.919
  C      118.471     -24.575     -10.584
  O      119.106     -25.134      -9.413
  C      117.902     -23.236     -10.130
  O      116.921     -22.765     -11.039
  C      117.367     -23.605      -8.752
  O      116.099     -24.272      -8.866
  C      118.430     -24.597      -8.250
  N      119.065     -21.550      -4.188
  C      117.958     -21.966      -4.842
  N      117.873     -22.775      -5.918
  C      119.093     -23.177      -6.309
  C      120.311     -22.841      -5.739
  C      120.271     -21.982      -4.628
  N      121.400     -21.548      -3.971
  N      121.349     -23.445      -6.418
  C      120.769     -24.114      -7.395
  N      119.406     -23.992      -7.363
  O      119.701     -26.038     -14.095
  O      118.331     -24.370     -15.474
  H      115.827     -24.541      -7.965
  H      119.422     -26.584     -14.854
  H      117.014     -21.596      -4.449
  H      121.290     -24.696      -8.145
  H      117.986     -25.443      -7.712
  H      117.223     -22.737      -8.101
  H      118.707     -22.496     -10.035
  H      117.654     -25.242     -10.890
  H      120.247     -23.752     -11.498
  H      121.290     -20.870      -3.234
  H      122.307     -21.792      -4.343
  H      119.929     -25.414     -11.968
  P      117.020     -21.239     -11.521
  C      118.684     -21.550     -13.455
  O      117.328     -21.359     -13.095
  O      118.434     -20.803     -10.921
  O      115.857     -20.385     -11.151
  H      119.120     -21.475     -11.081
  H      118.747     -21.648     -14.541
  H      119.073     -22.460     -12.991
  H      119.279     -20.687     -13.143
  H      122.752     -24.020     -14.662
  H      121.840     -25.438     -15.121
  H      121.926     -24.960     -13.443

 3  4  5  6  7  8  9  10  11  12  22  25  29  30  31  32 0
 6-311+G(2d,p)
 ****
 33  36  37 0
 6-311+G(2d,p)
 ****
 1  2  13  14  15  16  17  18  19  20  21  23  24  26 0
 3-21G
 ****
 27  28  34  35  38  39  40  41  42  43  44  45  46  47  48 0
 3-21G
 ****


