%nproc=1
%NoSave
%Mem=1900MB
#P OB98/GEN NMR

erre ene a

0 1
  C      868.740    -573.214    1010.551
  O      868.140    -573.106    1011.836
  P      867.171    -574.307    1012.294
  C      865.006    -572.826    1012.126
  O      865.740    -573.976    1011.672
  C      863.628    -572.807    1011.492
  O      863.729    -572.527    1010.060
  C      862.864    -574.123    1011.581
  O      862.373    -574.345    1012.885
  C      861.798    -573.925    1010.505
  O      860.721    -573.127    1011.027
  C      862.575    -573.132    1009.422
  N      862.967    -573.944    1008.289
  C      861.912    -574.515    1007.564
  O      860.741    -574.376    1007.864
  N      862.278    -575.302    1006.495
  C      863.562    -575.556    1006.094
  O      863.821    -576.252    1005.119
  C      864.631    -574.973    1006.915
  C      864.298    -574.198    1007.965
  O      867.011    -573.985    1013.878
  O      867.735    -575.658    1011.988
  H      866.995    -573.031    1014.050
  H      860.253    -572.745    1010.260
  H      861.542    -575.686    1005.945
  H      865.646    -575.196    1006.659
  H      865.068    -573.772    1008.597
  H      861.960    -572.301    1009.063
  H      861.366    -574.872    1010.156
  H      863.536    -574.951    1011.281
  H      863.028    -572.000    1011.953
  H      865.537    -571.921    1011.858
  H      864.930    -572.873    1013.219
  P      863.031    -575.536    1013.726
  C      861.165    -577.250    1013.026
  O      862.546    -576.912    1013.060
  O      862.196    -575.458    1015.100
  O      864.521    -575.411    1013.893
  H      861.249    -575.347    1014.965
  H      861.007    -577.994    1012.274
  H      860.533    -576.379    1012.828
  H      860.877    -577.680    1013.998
  H      869.355    -572.357    1010.371
  H      867.976    -573.267    1009.804
  H      869.340    -574.099    1010.511

 3  4  5  6  7  8  9  10  11  12  13  24  28  29  30  31  32 0
 6-311+G(2d,p)
 ****
 33  34 0
 6-311+G(2d,p)
 ****
 1  2  14  15  16  17  18  19  20  21  22  23  25  26  27 0
 3-21G
 ****
 35  36  37  38  39  40  41  42  43  44  45 0
 3-21G
 ****


