%nproc=1
%NoSave
%Mem=1900MB
#P OB98/GEN NMR

erre ene a

0 1
  C     -222.980    -848.907    1045.065
  O     -223.479    -847.640    1044.682
  P     -223.879    -846.557    1045.795
  C     -221.484    -845.647    1045.610
  O     -222.512    -846.087    1046.492
  C     -220.887    -844.330    1046.118
  O     -221.888    -843.282    1046.132
  C     -220.383    -844.385    1047.559
  O     -219.279    -845.220    1047.823
  C     -220.247    -842.913    1047.879
  O     -219.037    -842.377    1047.369
  C     -221.466    -842.311    1047.120
  N     -222.549    -841.942    1048.025
  C     -222.261    -840.920    1048.917
  O     -221.191    -840.335    1048.965
  N     -223.283    -840.582    1049.790
  C     -224.493    -841.211    1049.877
  O     -225.334    -840.896    1050.706
  C     -224.726    -842.293    1048.911
  C     -223.762    -842.621    1048.040
  O     -224.953    -846.980    1046.741
  O     -224.266    -845.274    1044.919
  H     -218.296    -842.818    1047.829
  H     -223.550    -844.927    1044.351
  H     -223.097    -839.862    1050.456
  H     -225.685    -842.796    1048.955
  H     -223.900    -843.412    1047.335
  H     -221.157    -841.414    1046.557
  H     -220.251    -842.733    1048.952
  H     -221.203    -844.782    1048.193
  H     -220.099    -844.020    1045.434
  H     -221.906    -845.500    1044.609
  H     -220.715    -846.428    1045.539
  P     -218.985    -845.864    1049.264
  C     -219.948    -848.196    1048.669
  O     -220.025    -847.066    1049.499
  O     -218.759    -844.907    1050.397
  O     -217.616    -846.670    1048.988
  H     -217.094    -846.685    1049.793
  H     -220.763    -848.884    1048.943
  H     -218.988    -848.709    1048.814
  H     -220.074    -847.902    1047.619
  H     -222.771    -849.487    1044.191
  H     -223.710    -849.412    1045.662
  H     -222.082    -848.780    1045.632

 3  4  5  6  7  8  9  10  11  12  13  23  28  29  30  31  32 0
 6-311+G(2d,p)
 ****
 33  34 0
 6-311+G(2d,p)
 ****
 1  2  14  15  16  17  18  19  20  21  22  24  25  26  27 0
 3-21G
 ****
 35  36  37  38  39  40  41  42  43  44  45 0
 3-21G
 ****


