%nproc=1
%NoSave
%Mem=1900MB
#P OB98/GEN NMR

erre ene a

0 1
  C      -96.906      51.889      22.156
  O      -95.780      51.030      22.095
  P      -95.200      50.653      20.644
  C      -96.319      48.302      20.743
  O      -96.168      49.525      20.038
  C      -96.989      47.251      19.852
  O      -98.201      47.822      19.297
  C      -96.135      46.765      18.674
  O      -96.485      45.397      18.440
  C      -96.625      47.622      17.522
  O      -96.342      47.048      16.251
  C      -98.108      47.728      17.859
  N     -101.410      49.331      14.374
  C     -100.964      48.050      14.649
  N     -101.524      47.054      13.930
  N     -100.055      47.771      15.546
  C      -99.598      48.869      16.197
  C      -99.933      50.188      15.991
  C     -100.966      50.477      15.022
  O     -101.452      51.584      14.809
  N      -99.190      51.024      16.784
  C      -98.470      50.206      17.523
  N      -98.715      48.891      17.239
  O      -93.860      49.854      20.993
  O      -94.958      51.809      19.723
  H      -95.371      46.941      16.179
  H      -93.085      50.450      20.990
  H     -102.126      49.481      13.685
  H      -97.762      50.509      18.283
  H      -98.676      46.845      17.535
  H      -96.141      48.607      17.559
  H     -102.252      47.192      13.245
  H      -95.057      46.861      18.846
  H     -101.241      46.103      14.133
  H      -97.286      46.404      20.485
  H      -96.954      48.474      21.619
  H      -95.339      47.954      21.087
  P      -95.398      44.454      17.734
  C      -96.543      44.973      15.469
  O      -95.331      44.866      16.188
  O      -96.129      43.028      17.703
  O      -94.087      44.364      18.448
  H      -95.465      42.317      17.781
  H      -96.380      45.623      14.603
  H      -97.342      45.399      16.083
  H      -96.844      43.983      15.116
  H      -97.177      52.049      23.179
  H      -97.726      51.440      21.636
  H      -96.665      52.826      21.700

 3  4  5  6  7  8  9  10  11  12  23  26  30  31 0
 6-311+G(2d,p)
 ****
 33  35  36  37  38 0
 6-311+G(2d,p)
 ****
 1  2  13  14  15  16  17  18  19  20  21  22  24  25 0
 3-21G
 ****
 27  28  29  32  34  39  40  41  42  43  44  45  46  47  48  49 0
 3-21G
 ****


