%nproc=1
%NoSave
%Mem=1900MB
#P OB98/GEN NMR

erre ene a

0 1
  C       -7.133    -370.265    -279.868
  O       -6.235    -371.137    -279.205
  P       -5.047    -371.763    -280.087
  C       -5.056    -374.076    -278.881
  O       -5.267    -373.350    -280.079
  C       -6.092    -375.198    -278.766
  O       -7.417    -374.674    -278.994
  C       -5.903    -376.331    -279.767
  O       -4.913    -377.236    -279.307
  C       -7.304    -376.928    -279.821
  O       -7.533    -377.806    -278.701
  C       -8.186    -375.672    -279.724
  N      -10.701    -376.670    -283.997
  C      -10.328    -377.513    -282.963
  N      -10.730    -378.799    -283.068
  N       -9.637    -377.129    -281.926
  C       -9.295    -375.821    -281.963
  C       -9.584    -374.891    -282.934
  C      -10.398    -375.315    -284.052
  O      -10.833    -374.586    -284.941
  N       -9.050    -373.664    -282.636
  C       -8.465    -373.849    -281.468
  N       -8.601    -375.133    -281.006
  O       -3.759    -371.540    -279.175
  O       -4.893    -371.173    -281.458
  H       -6.858    -378.507    -278.702
  H       -3.264    -370.747    -279.458
  H      -11.247    -377.015    -284.765
  H       -7.948    -373.083    -280.909
  H       -9.101    -375.856    -279.143
  H       -7.465    -377.522    -280.722
  H      -11.245    -379.173    -283.853
  H       -5.633    -375.931    -280.750
  H      -10.467    -379.432    -282.323
  H       -6.060    -375.581    -277.737
  H       -5.159    -373.403    -278.026
  H       -4.042    -374.490    -278.883
  P       -3.487    -377.210    -280.044
  C       -3.818    -379.719    -280.629
  O       -3.478    -378.423    -281.091
  O       -2.474    -377.677    -278.897
  O       -3.105    -375.878    -280.603
  H       -1.629    -377.199    -278.995
  H       -4.265    -380.276    -281.453
  H       -4.529    -379.681    -279.800
  H       -2.911    -380.234    -280.305
  H       -7.871    -369.919    -279.175
  H       -7.613    -370.788    -280.669
  H       -6.593    -369.429    -280.261

 3  4  5  6  7  8  9  10  11  12  23  26  30  31 0
 6-311+G(2d,p)
 ****
 33  35  36  37  38 0
 6-311+G(2d,p)
 ****
 1  2  13  14  15  16  17  18  19  20  21  22  24  25 0
 3-21G
 ****
 27  28  29  32  34  39  40  41  42  43  44  45  46  47  48  49 0
 3-21G
 ****


