%nproc=1
%NoSave
%Mem=1900MB
#P OB98/GEN NMR

erre ene a

0 1
  C       83.614    -170.522    -890.660
  O       82.492    -171.173    -891.240
  P       81.072    -171.016    -890.500
  C       80.303    -169.574    -892.530
  O       80.008    -170.663    -891.650
  C       79.528    -169.722    -893.840
  O       80.238    -170.606    -894.720
  C       78.140    -170.305    -893.690
  O       77.186    -169.336    -893.270
  C       77.847    -170.755    -895.110
  O       77.408    -169.644    -895.900
  C       79.251    -171.243    -895.590
  N       81.138    -175.278    -897.970
  C       81.157    -173.945    -898.350
  N       81.799    -173.636    -899.490
  N       80.600    -172.993    -897.640
  C       80.028    -173.436    -896.490
  C       79.951    -174.738    -896.020
  C       80.527    -175.787    -896.850
  O       80.484    -176.987    -896.590
  N       79.302    -174.789    -894.810
  C       79.033    -173.518    -894.530
  N       79.434    -172.671    -895.530
  O       81.232    -169.623    -889.720
  O       80.715    -172.129    -889.580
  H       77.100    -170.000    -896.750
  H       80.646    -169.600    -888.940
  H       81.605    -175.964    -898.550
  H       78.562    -173.192    -893.610
  H       79.469    -170.909    -896.600
  H       77.076    -171.539    -895.180
  H       82.361    -174.314    -900.000
  H       78.138    -171.175    -893.010
  H       81.863    -172.674    -899.750
  H       79.488    -168.724    -894.310
  H       81.381    -169.568    -892.750
  H       80.040    -168.641    -892.010
  P       75.954    -169.854    -892.370
  C       77.067    -169.332    -890.090
  O       76.044    -169.020    -891.010
  O       76.411    -171.338    -891.980
  O       74.637    -169.842    -893.090
  H       75.619    -171.896    -891.800
  H       77.999    -169.614    -890.590
  H       76.741    -170.157    -889.450
  H       77.253    -168.463    -889.460
  H       84.483    -170.712    -891.254
  H       83.770    -170.895    -889.670
  H       83.433    -169.468    -890.619

 3  4  5  6  7  8  9  10  11  12  23  26  30  31  33  0
 6-311+G(2d,p)
 ****
 35  36  37  38 0
 6-311+G(2d,p)
 ****
 1  2  13  14  15  16  17  18  19  20  21  22  24  25  27  28  29 0
 3-21G
 ****
 32  34  39  40  41  42  43  44  45  46  47  48  49 0
 3-21G
 ****


