%nproc=1
%NoSave
%Mem=1900MB
#P OB98/GEN NMR

erre ene a

0 1
  C     -269.420     781.395    -191.150
  O     -269.693     781.893    -192.441
  H     -268.347     781.494    -190.951
  H     -269.684     780.330    -191.096
  H     -269.971     781.954    -190.391
  P     -271.233     781.872    -192.910
  C     -272.273     780.954    -195.116
  O     -271.336     780.756    -194.060
  C     -272.088     779.887    -196.185
  O     -270.763     780.004    -196.758
  C     -272.181     778.462    -195.660
  O     -273.527     778.048    -195.484
  C     -271.455     777.689    -196.761
  O     -272.316     777.400    -197.866
  C     -270.364     778.677    -197.193
  N     -265.962     776.259    -198.090
  C     -267.049     776.478    -198.868
  N     -268.179     777.147    -198.551
  C     -268.116     777.637    -197.301
  C     -267.075     777.490    -196.388
  C     -265.956     776.763    -196.840
  N     -264.861     776.506    -196.036
  N     -267.390     778.082    -195.187
  C     -268.591     778.595    -195.368
  N     -269.069     778.346    -196.629
  O     -271.384     783.255    -193.710
  O     -272.235     781.750    -191.807
  H     -272.586     778.262    -198.241
  H     -271.736     783.942    -193.111
  H     -267.014     776.054    -199.866
  H     -269.167     779.133    -194.622
  H     -270.246     778.718    -198.279
  H     -271.067     776.738    -196.387
  H     -271.624     778.353    -194.718
  H     -272.815     780.061    -196.984
  H     -272.101     781.944    -195.561
  H     -273.294     780.920    -194.702
  H     -264.105     775.962    -196.410
  H     -264.894     776.787    -195.065
  P     -273.917     777.261    -194.148
  C     -274.356     774.695    -193.935
  O     -273.462     775.730    -194.334
  O     -275.521     777.187    -194.200
  O     -273.435     777.894    -192.879
  H     -275.907     777.864    -193.636
  H     -273.906     773.743    -194.124
  H     -275.266     774.776    -194.491
  H     -274.567     774.789    -192.890

 6  7  8  9  10  11  12  13  14  15  25  28  32  33  34  35 0
 6-311+G(2d,p)
 ****
 36  37  40 0
 6-311+G(2d,p)
 ****
 1  2  3  4  5  16  17  18  19  20  21  22  23  24 0
 3-21G
 ****
 26  27  29  30  31  38  39 41  42  43  44  45  46  47  48 0
 3-21G
 ****


