%nproc=1
%NoSave
%Mem=1900MB
#P OB98/GEN NMR

erre ene a

0 1
  C     -449.594    -897.460     210.901
  O     -448.419    -898.100     210.409
  P     -447.230    -898.580     211.375
  C     -445.274    -897.520     210.060
  O     -446.023    -897.510     211.271
  C     -444.322    -896.310     209.975
  O     -443.223    -896.470     210.896
  C     -443.722    -896.070     208.591
  O     -444.660    -895.440     207.743
  C     -442.503    -895.230     208.973
  O     -442.878    -893.850     209.158
  C     -442.067    -895.860     210.300
  N     -437.059    -896.700     210.915
  C     -437.824    -895.640     211.195
  N     -439.168    -895.480     210.987
  C     -439.696    -896.600     210.474
  C     -439.026    -897.780     210.133
  C     -437.637    -897.810     210.384
  N     -436.845    -898.880     210.091
  N     -439.882    -898.700     209.606
  C     -441.079    -898.110     209.640
  N     -440.992    -896.830     210.157
  O     -446.808    -900.000     211.176
  O     -447.808    -898.360     212.859
  H     -442.056    -893.370     209.379
  H     -447.382    -899.000     213.471
  H     -437.316    -894.770     211.624
  H     -442.000    -898.560     209.296
  H     -441.703    -895.090     211.013
  H     -441.736    -895.260     208.175
  H     -443.389    -897.020     208.172
  H     -444.905    -895.440     210.317
  H     -445.991    -897.490     209.220
  H     -435.847    -898.810     210.260
  H     -437.264    -899.690     209.629
  H     -444.699    -898.450     210.004
  P     -445.544    -896.330     206.731
  C     -444.249    -895.820     204.588
  O     -444.587    -896.800     205.554
  O     -446.828    -895.700     206.309
  O     -445.799    -897.670     207.554
  H     -446.652    -898.060     207.290
  H     -445.075    -895.710     203.875
  H     -443.340    -896.160     204.048
  H     -444.034    -894.870     205.071
  H     -450.244    -897.231     210.083
  H     -449.323    -896.556     211.406
  H     -450.096    -898.113     211.584

 3  4  5  6  7  8  9  10  11  12  22  25  29  30  31  32 0
 6-311+G(2d,p)
 ****
 33  36  37 0
 6-311+G(2d,p)
 ****
 1  2  13  14  15  16  17  18  19  20  21  23  24  26 0
 3-21G
 ****
 27  28  34  35  38  39  40  41  42  43  44  45  46  47  48 0
 3-21G
 ****


