%nproc=1
%NoSave
%Mem=1900MB
#P OB98/GEN NMR

erre ene a

0 1
  C      -62.198     197.159    -120.364
  O      -61.568     198.099    -119.519
  H      -62.922     197.683    -120.991
  H      -62.728     196.411    -119.771
  H      -61.465     196.666    -121.012
  P      -60.361     197.613    -118.583
  C      -61.768     197.417    -116.431
  O      -61.007     196.724    -117.415
  C      -61.595     196.743    -115.073
  O      -62.263     195.460    -115.059
  C      -60.141     196.460    -114.704
  O      -59.482     197.645    -114.300
  C      -60.331     195.421    -113.611
  O      -60.684     196.039    -112.363
  C      -61.521     194.599    -114.165
  N      -61.098     193.372    -114.844
  C      -61.918     192.262    -114.672
  O      -62.944     192.280    -113.995
  N      -61.494     191.109    -115.278
  C      -60.309     190.945    -115.942
  O      -59.868     189.847    -116.275
  C      -59.521     192.166    -116.152
  C      -59.936     193.304    -115.590
  O      -59.427     198.683    -118.121
  O      -59.603     196.522    -119.483
  H      -58.806     196.927    -119.878
  H      -59.923     196.593    -112.103
  H      -62.057     190.285    -115.123
  H      -58.608     192.091    -116.729
  H      -59.356     194.212    -115.707
  H      -62.206     194.319    -113.352
  H      -59.427     194.835    -113.430
  H      -59.624     195.994    -115.550
  H      -62.071     197.379    -114.313
  H      -62.824     197.383    -116.721
  H      -61.440     198.461    -116.394
  P      -58.019     198.005    -114.842
  C      -56.654     197.074    -112.884
  O      -56.994     196.923    -114.255
  O      -57.602     199.426    -114.647
  O      -58.074     197.637    -116.403
  H      -57.784     198.411    -116.924
  H      -55.968     196.303    -112.600
  H      -57.539     197.002    -112.287
  H      -56.198     198.030    -112.733

 6  7  8  9  10  11  12  13  14  15  16  27  31  32  33  34  35 0
 6-311+G(2d,p)
 ****
 36  37 0
 6-311+G(2d,p)
 ****
 1  2  3  4  5  17  18  19  20  21  22  23  24  25 0
 3-21G
 ****
 26  28  29  30  38  39  40  41  42  43  44  45 0
 3-21G
 ****


