%nproc=1
%NoSave
%Mem=1900MB
#P OB98/GEN NMR

erre ene a

0 1
  C     -107.284     -36.025     -21.601
  O     -108.206     -34.953     -21.628
  H     -107.429     -36.633     -22.497
  H     -107.452     -36.653     -20.721
  H     -106.259     -35.647     -21.598
  P     -108.225     -33.932     -20.396
  C     -110.594     -34.376     -19.468
  O     -109.756     -33.494     -20.204
  C     -112.009     -34.362     -20.039
  O     -112.663     -33.116     -19.732
  C     -112.075     -34.520     -21.557
  O     -111.964     -35.884     -21.923
  C     -113.456     -33.952     -21.835
  O     -114.460     -34.922     -21.477
  C     -113.508     -32.760     -20.861
  N     -114.193     -29.236     -24.448
  C     -114.798     -30.468     -24.289
  N     -115.691     -30.823     -25.238
  N     -114.544     -31.281     -23.299
  C     -113.581     -30.826     -22.465
  C     -112.896     -29.633     -22.528
  C     -113.236     -28.712     -23.592
  O     -112.740     -27.600     -23.753
  N     -111.925     -29.559     -21.562
  C     -112.059     -30.683     -20.884
  N     -113.045     -31.492     -21.398
  O     -107.270     -32.780     -20.481
  O     -107.946     -34.851     -19.117
  H     -114.316     -35.151     -20.541
  H     -106.993     -34.889     -18.912
  H     -114.425     -28.655     -25.236
  H     -111.474     -30.959     -20.015
  H     -114.519     -32.589     -20.474
  H     -113.609     -33.702     -22.886
  H     -115.818     -30.310     -26.098
  H     -111.327     -33.897     -22.058
  H     -116.101     -31.747     -25.170
  H     -112.580     -35.155     -19.539
  H     -110.598     -34.036     -18.428
  H     -110.196     -35.396     -19.500
  P     -111.343     -36.327     -23.338
  C     -113.685     -37.130     -24.084
  O     -112.323     -37.468     -23.893
  O     -109.904     -36.707     -23.297
  O     -111.671     -35.105     -24.312
  H     -110.995     -34.383     -24.266
  H     -114.215     -37.982     -24.455
  H     -113.758     -36.329     -24.790
  H     -114.111     -36.823     -23.151

 6  7  8  9  10  11  12  13  14  15  26  29  33  34 0
 6-311+G(2d,p)
 ****
 36  38  39  40  41 0
 6-311+G(2d,p)
 ****
 1  2  3  4  5  16  17  18  19  20  21  22  23  24  25 0
 3-21G
 ****
 27  28  30  31  32  35  37  42  43  44  45  46  47 0
 3-21G
 ****
 48  49 0
 3-21G
 ****


