%nproc=1
%NoSave
%Mem=1900MB
#P OB98/GEN NMR

erre ene a

0 1
  C     -604.923     583.334    -716.450
  O     -605.732     584.268    -715.735
  P     -607.317     584.070    -715.841
  C     -607.745     583.512    -713.340
  O     -607.758     583.046    -714.683
  C     -607.725     582.329    -712.365
  O     -606.466     581.641    -712.356
  C     -607.978     582.740    -710.920
  O     -609.372     582.940    -710.706
  C     -607.420     581.548    -710.154
  O     -608.391     580.485    -710.066
  C     -606.231     581.111    -711.030
  N     -602.250     579.956    -708.111
  C     -603.471     579.325    -708.236
  N     -603.647     578.209    -707.495
  N     -604.429     579.744    -709.010
  C     -604.113     580.868    -709.697
  C     -602.931     581.568    -709.682
  C     -601.875     581.093    -708.807
  O     -600.771     581.607    -708.683
  N     -602.960     582.629    -710.553
  C     -604.206     582.642    -711.002
  N     -604.926     581.556    -710.562
  O     -607.498     583.226    -717.193
  O     -608.077     585.351    -715.888
  H     -607.946     579.674    -709.765
  H     -607.903     583.785    -717.876
  H     -601.555     579.595    -707.488
  H     -604.625     583.381    -711.654
  H     -606.170     580.027    -711.117
  H     -607.153     581.815    -709.131
  H     -602.952     577.831    -706.874
  H     -607.412     583.644    -710.674
  H     -604.535     577.729    -707.576
  H     -608.506     581.627    -712.689
  H     -608.623     584.132    -713.143
  H     -606.864     584.145    -713.199
  P     -609.932     584.440    -710.769
  C     -611.258     584.020    -712.964
  O     -610.253     584.766    -712.303
  O     -608.634     585.324    -710.446
  O     -611.032     584.729    -709.811
  H     -608.870     586.030    -709.819
  H     -611.706     584.652    -713.736
  H     -612.032     583.692    -712.271
  H     -610.800     583.149    -713.435
  H     -603.890     583.570    -716.301
  H     -605.155     583.387    -717.493
  H     -605.118     582.345    -716.091

 3  4  5  6  7  8  9  10  11  12  23  26  30  31 0
 6-311+G(2d,p)
 ****
 33  35  36  37  38 0
 6-311+G(2d,p)
 ****
 1  2  13  14  15  16  17  18  19  20  21  22  24  25 0
 3-21G
 ****
 27  28  29  32  34  39  40  41  42  43  44  45  46  47  48  49 0
 3-21G
 ****


