%nproc=1
%NoSave
%Mem=1900MB
#P OB98/GEN NMR

erre ene a

0 1
  C     1014.605     173.411     228.187
  O     1015.205     173.237     226.925
  H     1014.715     174.454     228.486
  H     1015.088     172.776     228.930
  H     1013.531     173.182     228.148
  P     1014.961     171.817     226.207
  C     1013.023     172.721     224.718
  O     1014.319     172.145     224.763
  C     1012.824     173.475     223.395
  O     1013.569     174.723     223.418
  C     1013.309     172.711     222.166
  O     1012.352     171.793     221.709
  C     1013.473     173.867     221.187
  O     1012.173     174.265     220.679
  C     1014.059     174.957     222.070
  N     1018.251     176.976     220.042
  C     1016.921     177.207     219.737
  N     1016.670     178.068     218.735
  N     1015.921     176.603     220.360
  C     1016.326     175.761     221.328
  C     1017.614     175.460     221.725
  C     1018.700     176.117     221.047
  O     1019.888     175.983     221.284
  N     1017.625     174.557     222.740
  C     1016.338     174.288     222.965
  N     1015.519     174.981     222.105
  O     1013.726     171.190     227.025
  O     1016.128     170.890     226.199
  H     1012.328     174.973     220.034
  H     1013.850     170.231     227.087
  H     1018.977     177.449     219.543
  H     1015.976     173.599     223.712
  H     1013.725     175.963     221.782
  H     1014.072     173.600     220.311
  H     1017.403     178.520     218.183
  H     1014.297     172.249     222.348
  H     1015.697     178.259     218.504
  H     1011.759     173.722     223.309
  H     1012.910     173.416     225.556
  H     1012.276     171.927     224.822
  P     1012.882     170.513     220.860
  C     1013.660     169.128     222.924
  O     1012.722     169.239     221.848
  O     1014.454     170.765     220.800
  O     1012.271     170.366     219.511
  H     1014.831     170.288     220.025
  H     1013.445     168.250     223.496
  H     1013.585     169.990     223.553
  H     1014.652     169.061     222.527

 6  7  8  9  10  11  12  13  14  15  26  29  33  34 0
 6-311+G(2d,p)
 ****
 36  38  39  40  41 0
 6-311+G(2d,p)
 ****
 1  2  3  4  5  16  17  18  19  20  21  22  23  24  25 0
 3-21G
 ****
 27  28  30  31  32  35  37  42  43  44  45  46  47 0
 3-21G
 ****
 48  49 0
 3-21G
 ****


