%nproc=1
%NoSave
%Mem=1900MB
#P OB98/GEN NMR

erre ene a

0 1
  C      639.037     556.096    -737.657
  O      638.853     556.661    -738.948
  P      638.057     555.797    -740.040
  C      636.762     556.365    -742.227
  O      637.327     556.844    -741.005
  C      636.075     557.495    -742.978
  O      634.814     557.827    -742.327
  C      636.844     558.809    -743.028
  O      637.841     558.805    -744.053
  C      635.741     559.799    -743.353
  O      635.435     559.744    -744.755
  C      634.567     559.218    -742.529
  N      632.596     558.895    -737.805
  C      632.493     558.073    -738.879
  N      633.011     558.237    -740.105
  C      633.712     559.410    -740.188
  C      633.862     560.338    -739.164
  C      633.273     560.043    -737.923
  N      633.425     560.869    -736.824
  N      634.632     561.413    -739.609
  C      634.942     561.107    -740.870
  N      634.408     559.888    -741.248
  O      636.853     555.148    -739.193
  O      638.889     554.739    -740.719
  H      636.228     560.064    -745.243
  H      636.532     554.346    -739.630
  H      631.880     557.180    -738.736
  H      635.537     561.714    -741.533
  H      633.611     559.329    -743.066
  H      636.022     560.827    -743.121
  H      637.282     559.043    -742.034
  H      635.857     557.128    -743.990
  H      636.049     555.572    -742.010
  H      633.126     560.503    -735.933
  H      634.083     561.600    -736.849
  H      637.576     555.936    -742.826
  P      638.818     560.062    -744.116
  C      641.207     560.446    -745.090
  O      640.118     559.565    -744.901
  O      639.314     560.237    -742.620
  O      638.156     561.333    -744.655
  H      639.574     561.178    -742.432
  H      642.087     559.883    -745.335
  H      641.414     561.021    -744.146
  H      640.996     561.167    -745.885
  H      639.581     556.782    -737.042
  H      639.586     555.182    -737.743
  H      638.083     555.899    -737.215

 3  4  5  6  7  8  9  10  11  12  22  25  29  30  31  32 0
 6-311+G(2d,p)
 ****
 33  36  37 0
 6-311+G(2d,p)
 ****
 1  2  13  14  15  16  17  18  19  20  21  23  24  26 0
 3-21G
 ****
 27  28  34  35  38  39  40  41  42  43  44  45  46  47  48 0
 3-21G
 ****


