%nproc=1
%NoSave
%Mem=1900MB
#P OB98/GEN NMR

erre ene a

0 1
  C       28.281     -18.962      21.002
  O       27.576     -19.546      19.922
  P       27.093     -18.580      18.738
  C       24.813     -19.840      18.632
  O       25.491     -18.596      18.735
  C       23.553     -19.813      19.499
  O       23.904     -19.818      20.899
  C       22.700     -18.569      19.295
  O       21.919     -18.663      18.116
  C       21.872     -18.550      20.572
  O       20.732     -19.418      20.460
  C       22.874     -19.097      21.609
  N       23.430     -18.050      22.458
  C       22.835     -17.898      23.707
  O       21.881     -18.582      24.080
  N       23.346     -16.907      24.497
  C       24.335     -16.033      24.150
  O       24.713     -15.128      24.883
  C       24.907     -16.222      22.807
  C       24.432     -17.200      22.033
  O       27.484     -19.379      17.408
  O       27.697     -17.217      18.764
  H       20.141     -19.015      19.794
  H       27.762     -18.752      16.713
  H       22.946     -16.798      25.415
  H       25.693     -15.546      22.497
  H       24.830     -17.346      21.036
  H       22.382     -19.836      22.254
  H       21.491     -17.551      20.802
  H       23.339     -17.677      19.270
  H       22.969     -20.718      19.290
  H       25.475     -20.642      18.969
  H       24.556     -20.022      17.585
  P       22.139     -17.525      17.004
  C       19.648     -16.741      17.036
  O       21.001     -16.436      17.293
  O       21.656     -18.297      15.687
  O       23.543     -17.022      16.955
  H       20.946     -18.933      15.875
  H       19.426     -17.789      17.251
  H       19.421     -16.528      15.989
  H       19.018     -16.110      17.669
  H       28.538     -19.720      21.712
  H       27.664     -18.226      21.474
  H       29.173     -18.498      20.636

 3  4  5  6  7  8  9  10  11  12  13  23  28  29  30  31  32 0
 6-311+G(2d,p)
 ****
 33  34 0
 6-311+G(2d,p)
 ****
 1  2  14  15  16  17  18  19  20  21  22  24  25  26 0
 3-21G
 ****
 27  35  36  37  38  39  40  41  42  43  44  45 0
 3-21G
 ****


