%nproc=1
%NoSave
%Mem=1900MB
#P OB98/GEN NMR

erre ene a

0 1
  C     -192.285      80.940     491.972
  O     -190.961      81.280     492.376
  P     -189.754      81.591     491.381
  C     -188.611      83.506     492.773
  O     -188.534      82.193     492.223
  C     -187.383      83.804     493.653
  O     -187.535      83.098     494.917
  C     -186.072      83.322     493.018
  O     -184.993      84.241     493.157
  C     -185.889      81.942     493.622
  O     -184.557      81.458     493.548
  C     -186.457      82.136     495.030
  N     -186.318      79.006     499.064
  C     -185.548      80.124     498.793
  N     -184.596      80.440     499.702
  N     -185.680      80.847     497.714
  C     -186.601      80.378     496.852
  C     -187.419      79.279     497.000
  C     -187.305      78.510     498.222
  O     -187.975      77.527     498.520
  N     -188.248      79.117     495.919
  C     -187.918      80.097     495.105
  N     -186.929      80.899     495.635
  O     -190.111      82.297     490.116
  O     -189.206      80.123     490.975
  H     -183.980      82.106     493.993
  H     -188.872      80.203     490.056
  H     -186.190      78.500     499.926
  H     -188.369      80.286     494.135
  H     -185.714      82.541     495.720
  H     -186.514      81.237     493.053
  H     -184.364      79.854     500.488
  H     -186.179      83.220     491.927
  H     -183.897      81.114     499.390
  H     -187.355      84.882     493.862
  H     -189.519      83.526     493.385
  H     -188.723      84.251     491.985
  P     -183.946      84.726     492.052
  C     -183.805      87.175     492.824
  O     -183.107      85.955     492.655
  O     -184.834      85.426     490.921
  O     -183.110      83.639     491.461
  H     -184.723      84.948     490.071
  H     -183.080      87.978     492.978
  H     -184.453      87.110     493.696
  H     -184.403      87.403     491.935
  H     -192.893      80.783     492.838
  H     -192.260      80.045     491.387
  H     -192.695      81.737     491.388

 3  4  5  6  7  8  9  10  11  12  23  26  30  31 0
 6-311+G(2d,p)
 ****
 33  35  36  37  38 0
 6-311+G(2d,p)
 ****
 1  2  13  14  15  16  17  18  19  20  21  22  24  25 0
 3-21G
 ****
 27  28  29  32  34  39  40  41  42  43  44  45  46  47  48  49 0
 3-21G
 ****


