%nproc=1
%NoSave
%Mem=1900MB
#P OB98/GEN NMR

erre ene a

0 1
  C        4.781     193.045     457.492
  O        3.746     193.450     458.365
  H        5.737     193.379     457.903
  H        4.645     193.496     456.504
  H        4.792     191.955     457.406
  P        2.248     193.086     457.922
  C        1.836     191.964     460.204
  O        1.435     192.990     459.304
  C        1.538     192.371     461.649
  O        2.641     193.173     462.142
  C        0.258     193.200     461.795
  O       -0.411     192.828     463.001
  C        0.767     194.627     461.917
  O       -0.143     195.472     462.615
  C        2.105     194.415     462.632
  N        2.984     199.379     463.436
  C        2.054     198.535     463.932
  N        1.901     197.216     463.676
  C        2.867     196.780     462.844
  C        3.874     197.524     462.255
  C        3.908     198.891     462.580
  N        4.836     199.765     462.056
  N        4.640     196.723     461.429
  C        4.112     195.518     461.526
  N        3.026     195.506     462.361
  O        2.107     191.909     457.015
  O        1.739     194.478     457.320
  H        0.293     196.336     462.766
  H        2.001     195.229     457.887
  H        1.334     198.972     464.622
  H        4.468     194.631     461.012
  H        1.990     194.346     463.719
  H        0.925     195.046     460.919
  H       -0.417     193.083     460.943
  H        1.501     191.467     462.270
  H        2.910     191.767     460.098
  H        4.802     200.727     462.350
  H        5.547     199.415     461.428
  H        1.287     191.053     459.946
  P       -1.929     193.306     463.209
  C       -3.057     190.982     463.229
  O       -2.729     192.146     463.983
  O       -2.612     193.862     462.005
  O       -1.779     194.429     464.345
  H       -2.411     195.150     464.161
  H       -3.584     190.290     463.852
  H       -2.159     190.525     462.869
  H       -3.674     191.257     462.399

 6  7  8  9  10  11  12  13  14  15  25  28  32  33  34  35 0
 6-311+G(2d,p)
 ****
 36  39  40 0
 6-311+G(2d,p)
 ****
 1  2  3  4  5  16  17  18  19  20  21  22  23  24 0
 3-21G
 ****
 26  27  29  30  31  37  38  41  42  43  44  45  46  47 0
 3-21G
 ****
 48 0
 3-21G
 ****


