%nproc=1
%NoSave
%Mem=1900MB
#P OB98/GEN NMR

erre ene a

0 1
  C     -300.190    -532.483      91.735
  O     -299.323    -531.539      91.135
  H     -299.668    -532.953      92.573
  H     -300.478    -533.257      91.024
  H     -301.084    -531.982      92.119
  P     -299.762    -530.898      89.727
  C     -300.686    -528.698      90.716
  O     -300.999    -529.925      90.064
  C     -300.748    -527.526      89.732
  O     -299.928    -527.805      88.578
  C     -302.136    -527.257      89.179
  O     -303.049    -526.746      90.128
  C     -301.836    -526.464      87.914
  O     -301.692    -525.069      88.145
  C     -300.479    -527.066      87.473
  N     -300.613    -527.887      86.277
  C     -300.006    -527.396      85.129
  O     -299.410    -526.316      85.078
  N     -300.146    -528.164      84.004
  C     -300.855    -529.331      83.916
  O     -300.979    -529.945      82.860
  C     -301.500    -529.787      85.156
  C     -301.346    -529.061      86.269
  O     -300.042    -531.880      88.628
  O     -298.582    -529.875      89.389
  H     -301.399    -524.668      87.306
  H     -298.594    -529.616      88.437
  H     -299.707    -527.829      83.164
  H     -302.073    -530.701      85.118
  H     -301.809    -529.376      87.197
  H     -299.766    -526.261      87.248
  H     -302.629    -526.588      87.175
  H     -302.556    -528.217      88.845
  H     -300.340    -526.635      90.233
  H     -299.671    -528.780      91.119
  H     -301.379    -528.533      91.550
  P     -304.629    -526.881      89.984
  C     -304.848    -529.287      90.942
  O     -304.989    -528.441      89.803
  O     -305.315    -525.885      89.095
  O     -305.119    -526.595      91.488
  H     -305.976    -526.126      91.441
  H     -305.119    -530.288      90.679
  H     -305.487    -528.939      91.726
  H     -303.832    -529.269      91.276

 6  7  8  9  10  11  12  13  14  15  16  26  31  32  33  34  35 0
 6-311+G(2d,p)
 ****
 36  37 0
 6-311+G(2d,p)
 ****
 1  2  3  4  5  17  18  19  20  21  22  23  24  25 0
 3-21G
 ****
 27  28  29  30  38  39  40  41  42  43  44  45 0
 3-21G
 ****


