%nproc=1
%NoSave
%Mem=1900MB
#P OB98/GEN NMR

erre ene a

0 1
  C     -903.968     557.353     838.311
  O     -904.305     556.605     839.472
  H     -904.549     558.280     838.305
  H     -904.214     556.797     837.402
  H     -902.905     557.601     838.322
  P     -903.706     555.125     839.616
  C     -903.071     553.622     841.613
  O     -903.579     554.877     841.191
  C     -902.709     553.653     843.102
  O     -901.631     554.589     843.317
  C     -903.862     554.123     843.976
  O     -904.818     553.095     844.152
  C     -903.102     554.532     845.240
  O     -902.781     553.399     846.045
  C     -901.824     555.173     844.638
  N     -901.909     556.632     844.547
  C     -901.294     557.333     845.591
  O     -900.710     556.741     846.493
  N     -901.369     558.716     845.560
  C     -901.979     559.316     844.598
  N     -902.002     560.684     844.645
  C     -902.634     558.617     843.484
  C     -902.572     557.282     843.519
  O     -902.474     554.816     838.842
  O     -904.939     554.174     839.199
  H     -902.398     552.745     845.437
  H     -904.922     554.003     838.236
  H     -903.145     559.160     842.694
  H     -903.020     556.693     842.741
  H     -900.941     554.925     845.228
  H     -903.698     555.233     845.850
  H     -904.321     555.024     843.559
  H     -902.363     552.648     843.392
  H     -901.566     561.138     845.425
  H     -902.179     553.397     841.015
  H     -902.396     561.259     843.910
  H     -903.802     552.819     841.424
  P     -906.160     553.366     844.997
  C     -908.336     552.054     845.438
  O     -907.038     552.025     844.849
  O     -906.873     554.641     844.661
  O     -905.646     553.300     846.505
  H     -905.146     554.108     846.760
  H     -908.822     551.114     845.277
  H     -908.913     552.836     844.990
  H     -908.247     552.234     846.489

 6  7  8  9  10  11  12  13  14  15  16  26  30  31  32  33  35 0
 6-311+G(2d,p)
 ****
 37  38 0
 6-311+G(2d,p)
 ****
 1  2  3  4  5  17  18  19  20  21  22  23  24  25 0
 3-21G
 ****
 27  28  29  34  36  39  40  41  42  43  44  45  46 0
 3-21G
 ****


