%nproc=1
%NoSave
%Mem=1900MB
#P OB98/GEN NMR

erre ene a

0 1
  C     -107.658     116.724    1396.024
  O     -107.575     118.123    1396.189
  P     -107.139     118.653    1397.654
  C     -105.788     120.454    1396.364
  O     -106.639     120.170    1397.477
  C     -105.066     121.782    1396.607
  O     -104.314     121.742    1397.869
  C     -103.994     122.152    1395.516
  O     -104.609     122.618    1394.344
  C     -103.186     123.197    1396.297
  O     -103.870     124.476    1396.282
  C     -103.172     122.618    1397.735
  N      -98.251     122.885    1399.149
  C      -99.179     123.865    1398.932
  N     -100.463     123.719    1398.548
  C     -100.766     122.414    1398.365
  C      -99.907     121.322    1398.556
  C      -98.605     121.599    1398.964
  N      -97.661     120.624    1399.189
  N     -100.529     120.147    1398.282
  C     -101.757     120.497    1397.952
  N     -101.967     121.855    1398.031
  O     -105.784     117.832    1397.981
  O     -108.166     118.446    1398.736
  H     -103.658     124.895    1395.436
  H     -105.724     117.628    1398.942
  H      -98.834     124.875    1399.092
  H     -102.575     119.800    1397.709
  H     -103.264     123.399    1398.513
  H     -102.181     123.319    1395.869
  H     -103.359     121.270    1395.329
  H     -105.804     122.599    1396.680
  H     -106.377     120.562    1395.438
  H      -96.691     120.937    1399.347
  H      -97.859     119.669    1398.914
  H     -105.055     119.655    1396.241
  P     -104.130     121.958    1392.940
  C     -106.419     122.576    1391.949
  O     -105.010     122.712    1391.852
  O     -104.812     120.509    1393.035
  O     -102.634     121.965    1392.745
  H     -105.741     120.540    1393.286
  H     -106.885     123.156    1391.193
  H     -106.783     122.903    1392.935
  H     -106.687     121.501    1391.807
  H     -107.953     116.500    1395.020
  H     -108.381     116.327    1396.705
  H     -106.703     116.284    1396.221

 3  4  5  6  7  8  9  10  11  12  22  25  29  30  31  32 0
 6-311+G(2d,p)
 ****
 33  36  37 0
 6-311+G(2d,p)
 ****
 1  2  13  14  15  16  17  18  19  20  21  23  24  26 0
 3-21G
 ****
 27  28  34  35  38  39  40  41  42  43  44  45  46  47  48 0
 3-21G
 ****


