%nproc=1
%NoSave
%Mem=1900MB
#P OB98/GEN NMR

erre ene a

0 1
  C     -355.730    -374.562     381.011
  O     -355.557    -374.153     382.359
  H     -355.124    -373.915     380.370
  H     -356.780    -374.459     380.720
  H     -355.403    -375.596     380.882
  P     -356.354    -374.995     383.469
  C     -355.513    -372.958     384.852
  O     -356.070    -374.269     384.873
  C     -355.252    -372.487     386.278
  O     -356.509    -372.363     386.983
  C     -354.422    -373.451     387.109
  O     -353.035    -373.367     386.817
  C     -354.770    -373.004     388.526
  O     -353.977    -371.884     388.934
  C     -356.243    -372.600     388.384
  N     -359.575    -373.740     392.089
  C     -358.905    -372.610     391.798
  N     -358.039    -372.375     390.783
  C     -357.928    -373.475     390.005
  C     -358.548    -374.697     390.177
  C     -359.419    -374.816     391.279
  N     -360.086    -375.977     391.596
  N     -358.144    -375.591     389.197
  C     -357.305    -374.915     388.446
  N     -357.142    -373.627     388.892
  O     -355.512    -376.353     383.568
  O     -357.793    -375.252     383.162
  H     -353.949    -371.275     388.173
  H     -355.955    -377.050     383.051
  H     -359.071    -371.772     392.478
  H     -356.786    -375.303     387.582
  H     -356.472    -371.678     388.928
  H     -354.603    -373.812     389.239
  H     -354.779    -374.486     386.965
  H     -354.777    -371.491     386.246
  H     -356.206    -372.266     384.357
  H     -354.574    -372.983     384.279
  H     -360.633    -376.009     392.430
  H     -359.885    -376.813     391.054
  P     -352.216    -374.732     386.648
  C     -349.984    -373.382     386.771
  O     -350.772    -374.345     386.081
  O     -352.930    -375.460     385.410
  O     -352.202    -375.594     387.862
  H     -352.937    -376.427     385.551
  H     -349.056    -373.246     386.257
  H     -349.793    -373.725     387.767
  H     -350.511    -372.451     386.809

 6  7  8  9  10  11  12  13  14  15  25  28  32  33  34  35 0
 6-311+G(2d,p)
 ****
 36  37  40 0
 6-311+G(2d,p)
 ****
 1  2  3  4  5  16  17  18  19  20  21  22  23  24 0
 3-21G
 ****
 26  27  29  30  31  38  39 41  42  43  44  45  46  47  48 0
 3-21G
 ****


