%nproc=1
%NoSave
%Mem=1900MB
#P OB98/GEN NMR

erre ene a

0 1
  C      146.366     545.178    -699.203
  O      146.104     543.827    -698.792
  P      146.163     543.530    -697.210
  C      145.108     541.152    -697.301
  O      146.257     541.941    -697.022
  C      145.296     540.352    -698.583
  O      145.524     541.223    -699.713
  C      146.495     539.412    -698.562
  O      146.203     538.209    -697.859
  C      146.681     539.141    -700.046
  O      145.776     538.095    -700.471
  C      146.291     540.484    -700.686
  N      148.913     542.415    -704.563
  C      147.791     541.631    -704.569
  N      147.257     541.349    -705.793
  N      147.213     541.177    -703.484
  C      147.830     541.567    -702.344
  C      148.963     542.338    -702.215
  C      149.596     542.820    -703.420
  O      150.629     543.491    -703.476
  N      149.284     542.537    -700.901
  C      148.343     541.904    -700.228
  N      147.435     541.285    -701.065
  O      144.670     543.870    -696.727
  O      147.186     544.336    -696.478
  H      146.088     537.262    -700.060
  H      144.672     544.140    -695.790
  H      149.317     542.745    -705.431
  H      148.258     541.859    -699.154
  H      145.655     540.344    -701.566
  H      147.693     538.799    -700.293
  H      147.604     541.726    -706.652
  H      147.381     539.918    -698.163
  H      146.403     540.801    -705.800
  H      144.376     539.781    -698.768
  H      144.233     541.792    -697.396
  H      144.918     540.492    -696.445
  P      146.657     538.140    -696.314
  C      144.436     536.848    -695.902
  O      145.832     536.921    -695.695
  O      145.957     539.436    -695.684
  O      148.127     538.129    -696.098
  H      146.469     539.758    -694.924
  H      144.184     537.101    -696.939
  H      143.930     537.551    -695.231
  H      144.092     535.836    -695.696
  H      146.298     545.246    -700.269
  H      147.349     545.462    -698.890
  H      145.647     545.832    -698.757

 3  4  5  6  7  8  9  10  11  12  23  26  30  31  33  0
 6-311+G(2d,p)
 ****
 35  36  37  38 0
 6-311+G(2d,p)
 ****
 1  2  13  14  15  16  17  18  19  20  21  22  24  25  27  28  29 0
 3-21G
 ****
 32  34  39  40  41  42  43  44  45  46  47  48  49 0
 3-21G
 ****


