%nproc=1
%NoSave
%Mem=1900MB
#P OB98/GEN NMR

erre ene a

0 1
  C     -432.734     -29.208    -927.704
  O     -432.806     -30.610    -927.505
  P     -433.904     -31.230    -926.507
  C     -434.081     -33.308    -928.040
  O     -433.805     -32.830    -926.720
  C     -434.023     -34.832    -928.077
  O     -432.657     -35.295    -927.962
  C     -434.789     -35.521    -926.955
  O     -436.190     -35.515    -927.224
  C     -434.157     -36.911    -926.981
  O     -434.750     -37.738    -927.992
  C     -432.676     -36.591    -927.320
  N     -431.818     -36.620    -926.153
  C     -431.819     -37.821    -925.420
  O     -432.551     -38.755    -925.769
  N     -431.039     -37.915    -924.299
  C     -430.347     -36.909    -923.914
  N     -429.591     -37.049    -922.780
  C     -430.326     -35.610    -924.627
  C     -431.072     -35.534    -925.724
  O     -435.270     -30.649    -926.616
  O     -433.233     -31.036    -925.060
  H     -434.444     -37.381    -928.847
  H     -433.288     -30.085    -924.779
  H     -429.724     -34.782    -924.275
  H     -431.143     -34.631    -926.311
  H     -432.289     -37.297    -928.059
  H     -434.278     -37.429    -926.020
  H     -434.570     -35.036    -926.019
  H     -434.404     -35.168    -929.055
  H     -429.659     -37.947    -922.310
  H     -433.322     -32.893    -928.724
  H     -429.034     -36.325    -922.381
  H     -435.068     -32.948    -928.358
  P     -437.224     -35.773    -926.044
  C     -438.812     -33.740    -926.021
  O     -438.622     -35.084    -926.457
  O     -436.732     -35.468    -924.665
  O     -437.555     -37.344    -926.188
  H     -437.539     -37.748    -925.293
  H     -439.605     -33.293    -926.596
  H     -437.897     -33.163    -926.111
  H     -439.114     -33.760    -924.954
  H     -431.949     -28.986    -928.396
  H     -432.534     -28.725    -926.770
  H     -433.665     -28.855    -928.096

 3  4  5  6  7  8  9  10  11  12  13  23  27  28  29  30  32 0
 6-311+G(2d,p)
 ****
 34  35 0
 6-311+G(2d,p)
 ****
 1  2  14  15  16  17  18  19  20  21  22  24  25  26 0
 3-21G
 ****
 31  33  36  37  38  39  40  41  42  43  44  45  46 0
 3-21G
 ****


