%nproc=1
%NoSave
%Mem=1900MB
#P OB98/GEN NMR

erre ene a

0 1
  C     -329.354    -972.275     129.125
  O     -328.516    -973.091     129.919
  P     -329.020    -974.535     130.395
  C     -327.391    -975.850     128.902
  O     -328.758    -975.564     129.189
  C     -327.083    -977.314     129.223
  O     -327.860    -978.186     128.379
  C     -325.634    -977.708     128.980
  O     -324.802    -977.227     130.029
  C     -325.744    -979.231     128.903
  O     -325.780    -979.803     130.218
  C     -327.100    -979.402     128.199
  N     -325.605    -982.888     124.791
  C     -325.468    -982.831     126.136
  N     -325.855    -981.846     126.972
  C     -326.422    -980.836     126.281
  C     -326.597    -980.747     124.907
  C     -326.184    -981.848     124.140
  N     -326.360    -981.953     122.788
  N     -327.183    -979.540     124.573
  C     -327.354    -978.918     125.725
  N     -326.972    -979.690     126.779
  O     -330.407    -974.572     130.959
  O     -327.948    -974.984     131.487
  H     -324.880    -979.713     130.597
  H     -328.390    -975.117     132.346
  H     -324.990    -983.689     126.598
  H     -327.763    -977.915     125.838
  H     -327.691    -980.215     128.647
  H     -324.907    -979.684     128.376
  H     -325.294    -977.321     128.017
  H     -327.373    -977.511     130.261
  H     -326.770    -975.198     129.524
  H     -326.161    -982.841     122.362
  H     -327.047    -981.340     122.340
  H     -327.186    -975.642     127.846
  P     -323.270    -976.899     129.742
  C     -323.697    -974.420     129.264
  O     -323.228    -975.650     128.736
  O     -322.420    -978.068     129.341
  O     -322.757    -976.266     131.121
  H     -321.810    -976.495     131.248
  H     -324.789    -974.423     129.284
  H     -323.353    -973.609     128.619
  H     -323.321    -974.257     130.272
  H     -328.853    -971.355     128.906
  H     -330.260    -972.070     129.657
  H     -329.584    -972.782     128.211

 3  4  5  6  7  8  9  10  11  12  22  25  29  30  31  32 0
 6-311+G(2d,p)
 ****
 33  36  37 0
 6-311+G(2d,p)
 ****
 1  2  13  14  15  16  17  18  19  20  21  23  24  26 0
 3-21G
 ****
 27  28  34  35  38  39  40  41  42  43  44  45  46  47  48 0
 3-21G
 ****


