%nproc=1
%NoSave
%Mem=1900MB
#P OB98/GEN NMR

erre ene a

0 1
  C       32.979     639.465      35.796
  O       32.214     638.767      36.757
  H       32.322     639.997      35.102
  H       33.609     640.194      36.311
  H       33.621     638.772      35.244
  P       31.221     637.632      36.204
  C       29.258     639.337      36.209
  O       29.749     638.083      36.660
  C       28.241     639.879      37.204
  O       27.099     638.995      37.283
  C       28.764     640.003      38.634
  O       29.527     641.185      38.826
  C       27.456     640.058      39.404
  O       26.879     641.371      39.284
  C       26.603     639.030      38.651
  N       25.215     636.063      42.581
  C       25.001     637.369      42.319
  N       25.411     638.087      41.251
  C       26.102     637.315      40.400
  C       26.406     635.972      40.534
  C       25.918     635.334      41.689
  N       26.147     634.002      41.966
  N       27.170     635.533      39.469
  C       27.294     636.588      38.690
  N       26.678     637.693      39.214
  O       31.525     636.372      37.144
  O       31.351     637.307      34.754
  H       27.017     641.654      38.359
  H       31.231     635.551      36.710
  H       24.432     637.913      43.067
  H       27.819     636.603      37.744
  H       25.544     639.310      38.607
  H       27.579     639.857      40.470
  H       29.324     639.110      38.935
  H       27.887     640.851      36.834
  H       28.780     639.207      35.235
  H       25.916     633.691      42.898
  H       26.795     633.491      41.384
  H       30.098     640.035      36.103
  P       31.018     641.016      39.387
  C       30.968     642.756      41.315
  O       31.416     642.436      40.003
  O       31.899     640.919      38.057
  O       31.217     639.836      40.286
  H       32.725     640.425      38.218
  H       31.314     643.733      41.582
  H       31.355     642.039      42.009
  H       29.898     642.737      41.341

 6  7  8  9  10  11  12  13  14  15  25  28  32  33  34  35 0
 6-311+G(2d,p)
 ****
 36  39  40 0
 6-311+G(2d,p)
 ****
 1  2  3  4  5  16  17  18  19  20  21  22  23  24 0
 3-21G
 ****
 26  27  29  30  31  37  38  41  42  43  44  45  46  47 0
 3-21G
 ****
 48 0
 3-21G
 ****


