%nproc=1
%NoSave
%Mem=1900MB
#P OB98/GEN NMR

erre ene a

0 1
  C      -17.120     125.492      13.035
  O      -16.689     126.209      11.881
  P      -17.532     127.351      11.153
  C      -15.939     129.417      11.409
  O      -16.507     128.428      10.563
  C      -14.524     129.839      10.978
  O      -13.592     128.761      11.254
  C      -14.472     130.081       9.469
  O      -14.879     131.326       8.934
  C      -13.068     129.661       9.059
  O      -12.154     130.757       9.028
  C      -12.668     128.663      10.151
  N      -10.347     125.276       7.100
  C      -10.125     126.632       7.225
  N       -9.203     127.172       6.399
  N      -10.764     127.395       8.071
  C      -11.720     126.747       8.774
  C      -12.046     125.411       8.723
  C      -11.292     124.563       7.824
  O      -11.440     123.353       7.684
  N      -13.087     125.117       9.567
  C      -13.405     126.275      10.106
  N      -12.598     127.296       9.662
  O      -18.700     127.876      11.917
  O      -18.103     126.610       9.838
  H      -11.339     130.457       8.590
  H      -18.975     127.011       9.649
  H       -9.809     124.731       6.449
  H      -14.202     126.427      10.825
  H      -11.676     128.898      10.556
  H      -13.073     129.233       8.050
  H       -8.765     126.663       5.648
  H      -15.143     129.347       9.005
  H       -9.194     128.191       6.335
  H      -14.176     130.692      11.566
  H      -15.922     128.998      12.419
  H      -16.587     130.293      11.447
  P      -15.185     131.642       7.395
  C      -17.593     132.503       7.532
  O      -16.234     132.848       7.337
  O      -16.061     130.394       6.910
  O      -13.977     131.812       6.533
  H      -16.083     130.352       5.936
  H      -18.223     133.320       7.171
  H      -17.783     132.352       8.598
  H      -17.847     131.590       6.984
  H      -16.368     124.786      13.318
  H      -18.030     124.974      12.814
  H      -17.286     126.178      13.840

 3  4  5  6  7  8  9  10  11  12  23  26  30  31 0
 6-311+G(2d,p)
 ****
 33  35  36  37  38 0
 6-311+G(2d,p)
 ****
 1  2  13  14  15  16  17  18  19  20  21  22  24  25 0
 3-21G
 ****
 27  28  29  32  34  39  40  41  42  43  44  45  46  47  48  49 0
 3-21G
 ****


