%nproc=1
%NoSave
%Mem=1900MB
#P OB98/GEN NMR

erre ene a

0 1
  C      337.239    -212.366     315.009
  O      337.589    -213.537     315.722
  P      336.506    -214.126     316.762
  C      337.743    -213.489     318.960
  O      336.624    -213.251     318.107
  C      337.397    -214.524     320.029
  O      338.600    -214.825     320.793
  C      336.316    -214.083     321.034
  O      335.567    -215.253     321.375
  C      337.151    -213.601     322.207
  O      336.435    -213.489     323.426
  C      338.268    -214.641     322.183
  N      340.090    -213.540     326.846
  C      338.881    -213.999     326.431
  N      338.477    -214.276     325.174
  C      339.466    -214.045     324.294
  C      340.730    -213.563     324.563
  C      341.034    -213.306     325.913
  N      342.267    -212.824     326.325
  N      341.469    -213.427     323.402
  C      340.651    -213.824     322.445
  N      339.437    -214.223     322.940
  O      337.138    -215.537     317.177
  O      335.119    -214.270     316.214
  H      337.057    -213.539     324.182
  H      336.442    -216.215     317.274
  H      338.144    -214.167     327.212
  H      340.887    -213.819     321.390
  H      337.945    -215.605     322.586
  H      337.550    -212.608     321.976
  H      335.634    -213.327     320.634
  H      337.086    -215.450     319.530
  H      338.001    -212.550     319.464
  H      342.310    -212.485     327.275
  H      342.880    -212.465     325.613
  H      338.595    -213.804     318.357
  P      334.035    -215.088     321.833
  C      334.706    -216.225     324.046
  O      334.116    -215.101     323.445
  O      333.468    -216.558     321.542
  O      333.272    -213.988     321.193
  H      334.039    -217.250     321.931
  H      334.786    -216.062     325.119
  H      335.711    -216.402     323.638
  H      334.080    -217.115     323.870
  H      338.044    -212.089     314.360
  H      337.048    -211.571     315.700
  H      336.360    -212.552     314.428

 3  4  5  6  7  8  9  10  11  12  22  25  29  30  31  32 0
 6-311+G(2d,p)
 ****
 33  36  37 0
 6-311+G(2d,p)
 ****
 1  2  13  14  15  16  17  18  19  20  21  23  24  26 0
 3-21G
 ****
 27  28  34  35  38  39  40  41  42  43  44  45  46  47  48 0
 3-21G
 ****


