%nproc=1
%NoSave
%Mem=1900MB
#P OB98/GEN NMR

erre ene a

0 1
  C      -11.065     -92.948     -16.678
  O      -11.560     -93.656     -17.799
  H      -10.117     -92.479     -16.951
  H      -10.891     -93.636     -15.846
  H      -11.773     -92.171     -16.381
  P      -12.968     -94.402     -17.608
  C      -13.720     -93.907     -20.036
  O      -13.355     -94.898     -19.084
  C      -13.692     -94.487     -21.449
  O      -12.339     -94.746     -21.865
  C      -14.431     -95.812     -21.598
  O      -15.828     -95.599     -21.729
  C      -13.817     -96.335     -22.887
  O      -14.437     -95.692     -24.018
  C      -12.350     -95.884     -22.767
  N       -9.527    -100.006     -23.951
  C      -10.468     -99.332     -24.648
  N      -11.207     -98.272     -24.255
  C      -10.899     -97.916     -22.997
  C       -9.962     -98.510     -22.164
  C       -9.248     -99.599     -22.691
  N       -8.283    -100.278     -21.980
  N       -9.921     -97.873     -20.942
  C      -10.779     -96.879     -21.054
  N      -11.423     -96.883     -22.266
  O      -14.012     -93.636     -16.872
  O      -12.498     -95.763     -16.904
  H      -14.012     -96.042     -24.824
  H      -11.659     -96.074     -17.288
  H      -10.649     -99.689     -25.657
  H      -10.958     -96.122     -20.299
  H      -11.951     -95.544     -23.729
  H      -13.966     -97.410     -23.011
  H      -14.190     -96.499     -20.781
  H      -14.102     -93.731     -22.130
  H      -13.041     -93.050     -19.973
  H       -7.944    -101.147     -22.367
  H       -8.165    -100.053     -21.002
  H      -14.730     -93.568     -19.787
  P      -16.838     -96.070     -20.576
  C      -18.554     -94.191     -20.951
  O      -18.302     -95.590     -21.028
  O      -16.451     -95.664     -19.195
  O      -16.913     -97.658     -20.730
  H      -16.959     -98.083     -19.852
  H      -19.554     -93.990     -21.275
  H      -17.864     -93.669     -21.580
  H      -18.434     -93.862     -19.940

 6  7  8  9  10  11  12  13  14  15  25  28  32  33  34  35 0
 6-311+G(2d,p)
 ****
 36  39  40 0
 6-311+G(2d,p)
 ****
 1  2  3  4  5  16  17  18  19  20  21  22  23  24 0
 3-21G
 ****
 26  27  29  30  31  37  38  41  42  43  44  45  46  47 0
 3-21G
 ****
 48 0
 3-21G
 ****


