%nproc=1
%NoSave
%Mem=1900MB
#P OB98/GEN NMR

erre ene a

0 1
  C      124.292     214.480     190.136
  O      123.664     213.217     189.985
  P      122.244     213.006     190.705
  C      121.324     214.777     189.041
  O      121.376     214.319     190.387
  C      120.185     215.778     188.838
  O      120.456     216.564     187.652
  C      118.808     215.133     188.674
  O      117.852     215.972     189.322
  C      118.572     215.181     187.177
  O      117.180     215.152     186.860
  C      119.295     216.483     186.801
  N      119.663     216.523     185.388
  C      119.760     217.785     184.798
  O      119.464     218.792     185.441
  N      120.139     217.872     183.481
  C      120.299     216.788     182.788
  N      120.678     216.927     181.488
  C      120.086     215.438     183.341
  C      119.792     215.378     184.639
  O      122.600     213.166     192.255
  O      121.584     211.701     190.405
  H      116.765     215.955     187.245
  H      122.022     212.604     192.804
  H      120.197     214.568     182.710
  H      119.643     214.430     185.136
  H      118.663     217.354     187.020
  H      119.053     214.321     186.695
  H      118.758     214.124     189.094
  H      120.181     216.469     189.690
  H      120.803     217.862     181.126
  H      121.150     213.923     188.381
  H      120.825     216.139     180.871
  H      122.286     215.225     188.773
  P      116.621     215.260     190.066
  C      118.020     215.139     192.216
  O      117.290     214.410     191.250
  O      116.240     214.107     189.019
  O      115.431     216.088     190.415
  H      115.449     213.631     189.329
  H      118.300     214.464     193.028
  H      117.411     215.949     192.627
  H      118.931     215.544     191.766
  H      125.223     214.481     189.609
  H      124.470     214.668     191.174
  H      123.657     215.244     189.739

 3  4  5  6  7  8  9  10  11  12  13  21  23  27  28  29  30  32 0
 6-311+G(2d,p)
 ****
 34  35 0
 6-311+G(2d,p)
 ****
 1  2  14  15  16  17  18  19  20  22  24  25  26 0
 3-21G
 ****
 31  33  36  37  38  39  40  41  42  43  44  45  46 0
 3-21G
 ****


