%nproc=1
%NoSave
%Mem=1900MB
#P OB98/GEN NMR

erre ene a

0 1
  C      334.037    -268.331      34.873
  O      334.898    -267.476      35.599
  H      333.004    -268.015      35.042
  H      334.152    -269.364      35.219
  H      334.255    -268.268      33.804
  P      336.467    -267.816      35.523
  C      337.969    -269.763      36.347
  O      336.657    -269.220      36.283
  C      337.915    -271.290      36.348
  O      337.333    -271.780      35.122
  C      339.274    -271.965      36.492
  O      339.662    -272.049      37.856
  C      338.989    -273.331      35.880
  O      338.316    -274.194      36.823
  C      338.058    -272.971      34.711
  N      339.748    -275.133      30.468
  C      339.171    -275.696      31.590
  N      339.055    -277.044      31.595
  N      338.760    -275.009      32.619
  C      338.997    -273.675      32.504
  C      339.558    -272.998      31.446
  C      339.955    -273.766      30.287
  O      340.398    -273.316      29.230
  N      339.606    -271.650      31.695
  C      339.106    -271.520      32.912
  N      338.730    -272.727      33.449
  O      337.125    -266.761      36.534
  O      337.080    -267.721      34.172
  H      338.091    -275.031      36.381
  H      337.980    -266.466      36.164
  H      340.016    -275.706      29.689
  H      338.996    -270.583      33.441
  H      337.319    -273.759      34.527
  H      339.912    -273.849      35.596
  H      339.599    -277.633      30.983
  H      340.038    -271.449      35.894
  H      338.698    -277.462      32.448
  H      337.244    -271.594      37.166
  H      338.448    -269.417      37.267
  H      338.546    -269.413      35.485
  P      341.223    -272.156      38.192
  C      343.037    -274.009      38.004
  O      341.651    -273.701      38.087
  O      341.267    -271.857      39.768
  O      342.087    -271.195      37.447
  H      341.613    -270.961      39.926
  H      343.163    -275.070      37.940
  H      343.537    -273.642      38.876
  H      343.454    -273.547      37.133

 6  7  8  9  10  11  12  13  14  15  26  29  33  34 0
 6-311+G(2d,p)
 ****
 36  38  39  40  41 0
 6-311+G(2d,p)
 ****
 1  2  3  4  5  16  17  18  19  20  21  22  23  24  25 0
 3-21G
 ****
 27  28  30  31  32  35  37  42  43  44  45  46  47 0
 3-21G
 ****
 48  49 0
 3-21G
 ****


