%nproc=1
%NoSave
%Mem=1900MB
#P OB98/GEN NMR

erre ene a

0 1
  C     -138.412     241.202     -74.407
  O     -139.122     241.474     -73.197
  P     -140.038     240.285     -72.625
  C     -141.882     238.777     -73.654
  O     -141.238     240.042     -73.661
  C     -143.403     238.940     -73.657
  O     -143.908     239.397     -72.388
  C     -143.896     239.944     -74.691
  O     -143.929     239.346     -75.974
  C     -145.284     240.283     -74.149
  O     -146.263     239.311     -74.572
  C     -145.083     240.217     -72.630
  N     -147.151     244.775     -71.816
  C     -147.551     243.762     -72.667
  N     -148.669     243.984     -73.386
  N     -146.903     242.631     -72.799
  C     -145.803     242.546     -72.018
  C     -145.326     243.471     -71.117
  C     -146.044     244.720     -70.984
  O     -145.748     245.636     -70.224
  N     -144.214     243.001     -70.460
  C     -143.951     241.852     -71.057
  N     -144.920     241.499     -71.966
  O     -140.749     240.943     -71.349
  O     -139.258     239.064     -72.250
  H     -146.294     239.295     -75.543
  H     -140.392     240.548     -70.530
  H     -147.681     245.629     -71.756
  H     -143.091     241.233     -70.854
  H     -145.928     239.724     -72.135
  H     -145.637     241.253     -74.518
  H     -149.217     244.830     -73.332
  H     -143.261     240.838     -74.682
  H     -148.980     243.251     -74.016
  H     -143.841     237.955     -73.859
  H     -141.573     238.206     -72.772
  H     -141.548     238.207     -74.526
  P     -142.827     239.809     -77.043
  C     -142.117     242.068     -78.104
  O     -142.846     241.407     -77.091
  O     -143.473     239.374     -78.441
  O     -141.480     239.186     -76.853
  H     -142.790     238.952     -79.001
  H     -142.612     243.015     -78.334
  H     -142.060     241.465     -79.017
  H     -141.105     242.274     -77.747
  H     -137.841     242.063     -74.687
  H     -139.109     240.968     -75.185
  H     -137.754     240.372     -74.256

 3  4  5  6  7  8  9  10  11  12  23  26  30  31 0
 6-311+G(2d,p)
 ****
 33  35  36  37  38 0
 6-311+G(2d,p)
 ****
 1  2  13  14  15  16  17  18  19  20  21  22  24  25 0
 3-21G
 ****
 27  28  29  32  34  39  40  41  42  43  44  45  46  47  48  49 0
 3-21G
 ****


