%nproc=1
%NoSave
%Mem=1900MB
#P OB98/GEN NMR

erre ene a

0 1
  C     -887.820     778.958    -418.695
  O     -889.020     778.328    -419.174
  P     -890.400     779.079    -419.431
  C     -891.470     778.276    -421.688
  O     -891.350     778.105    -420.280
  C     -892.910     778.075    -422.197
  O     -893.290     776.687    -422.099
  C     -893.890     778.866    -421.314
  O     -894.120     780.244    -421.549
  C     -895.160     778.007    -421.323
  O     -896.090     778.439    -422.337
  C     -894.640     776.601    -421.624
  N     -897.680     774.268    -418.234
  C     -898.010     775.188    -419.215
  N     -899.310     775.561    -419.275
  N     -897.140     775.693    -420.050
  C     -895.880     775.287    -419.832
  C     -895.420     774.408    -418.878
  C     -896.390     773.799    -417.985
  O     -896.150     772.975    -417.111
  N     -894.050     774.254    -418.938
  C     -893.690     775.070    -419.906
  N     -894.750     775.726    -420.489
  O     -890.290     780.498    -419.904
  O     -891.090     779.100    -417.965
  H     -895.660     778.308    -423.193
  H     -891.610     779.924    -417.921
  H     -898.390     773.889    -417.624
  H     -892.650     775.216    -420.237
  H     -895.220     776.146    -422.442
  H     -895.690     778.103    -420.370
  H     -900.000     775.304    -418.583
  H     -893.520     778.801    -420.285
  H     -899.510     776.389    -419.844
  H     -892.980     778.336    -423.256
  H     -890.800     777.546    -422.162
  H     -891.110     779.257    -421.983
  P     -893.240     781.446    -420.947
  C     -894.250     782.786    -422.902
  O     -893.830     782.825    -421.545
  O     -891.830     781.322    -421.707
  O     -893.060     781.436    -419.477
  H     -891.150     781.845    -421.252
  H     -894.340     783.818    -423.275
  H     -895.240     782.316    -422.970
  H     -893.540     782.232    -423.535
  H     -887.043     778.228    -418.611
  H     -888.005     779.394    -417.735
  H     -887.520     779.722    -419.382

 3  4  5  6  7  8  9  10  11  12  23  26  30  31 0
 6-311+G(2d,p)
 ****
 33  35  36  37  38 0
 6-311+G(2d,p)
 ****
 1  2  13  14  15  16  17  18  19  20  21  22  24  25 0
 3-21G
 ****
 27  28  29  32  34  39  40  41  42  43  44  45  46  47  48  49 0
 3-21G
 ****


