%nproc=1
%NoSave
%Mem=1900MB
#P OB98/GEN NMR

erre ene a

0 1
  C       72.722     190.498    -253.474
  O       73.808     189.684    -253.068
  P       73.498     188.151    -252.703
  C       73.528     188.823    -250.189
  O       72.836     188.159    -251.241
  C       72.624     188.954    -248.966
  O       71.424     189.689    -249.295
  C       72.139     187.628    -248.404
  O       73.110     187.006    -247.574
  C       70.947     188.078    -247.576
  O       71.394     188.607    -246.310
  C       70.359     189.198    -248.445
  N       65.326     188.777    -248.726
  C       66.102     189.468    -247.818
  N       65.449     190.087    -246.813
  N       67.404     189.550    -247.894
  C       67.923     188.875    -248.948
  C       67.253     188.156    -249.915
  C       65.813     188.063    -249.813
  O       65.074     187.423    -250.554
  N       68.120     187.621    -250.830
  C       69.314     188.014    -250.425
  N       69.249     188.742    -249.265
  O       74.948     187.528    -252.445
  O       72.738     187.403    -253.750
  H       71.877     189.433    -246.509
  H       74.905     186.553    -252.485
  H       64.323     188.739    -248.619
  H       70.244     187.786    -250.927
  H       70.008     190.039    -247.843
  H       70.252     187.264    -247.349
  H       64.453     190.007    -246.663
  H       71.795     186.955    -249.199
  H       65.999     190.545    -246.097
  H       73.168     189.524    -248.203
  H       73.832     189.816    -250.529
  H       74.427     188.255    -249.935
  P       73.041     185.406    -247.459
  C       71.823     185.660    -245.178
  O       71.812     185.102    -246.475
  O       74.332     185.053    -246.579
  O       73.036     184.689    -248.769
  H       74.635     184.147    -246.773
  H       70.818     185.578    -244.755
  H       72.107     186.716    -245.204
  H       72.516     185.102    -244.544
  H       73.076     191.486    -253.683
  H       71.994     190.538    -252.691
  H       72.276     190.085    -254.355

 3  4  5  6  7  8  9  10  11  12  23  26  30  31 0
 6-311+G(2d,p)
 ****
 33  35  36  37  38 0
 6-311+G(2d,p)
 ****
 1  2  13  14  15  16  17  18  19  20  21  22  24  25 0
 3-21G
 ****
 27  28  29  32  34  39  40  41  42  43  44  45  46  47  48  49 0
 3-21G
 ****


