%nproc=1
%NoSave
%Mem=1900MB
#P OB98/GEN NMR

erre ene a

0 1
  C      -12.258      -7.752    -182.350
  O      -13.093      -8.900    -182.475
  P      -12.443     -10.347    -182.251
  C      -13.879     -11.185    -180.194
  O      -12.635     -10.798    -180.733
  C      -13.776     -11.230    -178.660
  O      -13.351      -9.948    -178.150
  C      -15.097     -11.568    -177.977
  O      -15.298     -12.966    -177.871
  C      -14.942     -10.876    -176.637
  O      -14.098     -11.651    -175.767
  C      -14.231      -9.566    -177.055
  N      -15.068      -8.429    -177.494
  C      -15.468      -7.466    -176.571
  O      -15.175      -7.487    -175.379
  N      -16.226      -6.438    -177.066
  C      -16.477      -6.181    -178.382
  O      -17.113      -5.211    -178.771
  C      -15.907      -7.146    -179.328
  C      -15.254      -8.209    -178.852
  O      -10.873     -10.081    -182.376
  O      -12.913     -11.390    -183.217
  H      -14.457     -12.556    -175.748
  H      -10.509     -10.548    -183.151
  H      -16.584      -5.770    -176.401
  H      -16.040      -6.956    -180.384
  H      -14.828      -8.930    -179.546
  H      -13.599      -9.195    -176.240
  H      -15.898     -10.783    -176.128
  H      -15.929     -11.094    -178.506
  H      -13.015     -11.971    -178.387
  H      -14.183     -12.162    -180.575
  H      -14.651     -10.471    -180.500
  P      -16.009     -13.761    -179.065
  C      -13.832     -15.084    -179.365
  O      -14.817     -14.291    -180.000
  O      -17.110     -13.042    -179.768
  O      -16.522     -15.109    -178.363
  H      -17.467     -15.025    -178.099
  H      -13.176     -15.507    -180.130
  H      -14.298     -15.899    -178.806
  H      -13.235     -14.464    -178.691
  H      -12.836      -6.869    -182.527
  H      -11.465      -7.808    -183.066
  H      -11.846      -7.716    -181.363

 3  4  5  6  7  8  9  10  11  12  13  23  28  29  30  31  32 0
 6-311+G(2d,p)
 ****
 33  34 0
 6-311+G(2d,p)
 ****
 1  2  14  15  16  17  18  19  20  21  22  24  25  26  27 0
 3-21G
 ****
 35  36  37  38  39  40  41  42  43  44  45 0
 3-21G
 ****


