%nproc=1
%NoSave
%Mem=1900MB
#P OB98/GEN NMR

erre ene a

0 1
  C       -6.055      31.178      -8.353
  O       -6.166      29.802      -8.639
  P       -6.303      28.732      -7.454
  C       -3.756      28.967      -7.165
  O       -4.852      28.065      -7.280
  C       -2.769      28.462      -6.117
  O       -3.420      28.272      -4.835
  C       -2.167      27.101      -6.436
  O       -1.319      27.013      -7.559
  C       -1.577      26.715      -5.090
  O       -0.311      27.338      -4.877
  C       -2.635      27.290      -4.114
  N       -3.473      26.241      -3.539
  C       -3.355      26.050      -2.167
  O       -2.600      26.706      -1.451
  N       -4.117      25.046      -1.635
  C       -4.932      24.203      -2.333
  O       -5.553      23.294      -1.797
  C       -5.004      24.443      -3.781
  C       -4.284      25.434      -4.312
  O       -7.419      27.755      -7.607
  O       -6.414      29.646      -6.143
  H       -0.046      27.158      -3.955
  H       -5.649      30.229      -5.988
  H       -4.037      24.882      -0.644
  H       -5.652      23.799      -4.362
  H       -4.319      25.628      -5.379
  H       -2.143      27.823      -3.291
  H       -1.422      25.634      -5.009
  H       -2.990      26.403      -6.636
  H       -1.997      29.223      -5.978
  H       -4.134      29.947      -6.856
  H       -3.276      29.085      -8.142
  P       -1.787      26.428      -8.975
  C       -2.286      23.943      -8.434
  O       -1.406      24.872      -9.028
  O       -1.476      27.254     -10.178
  O       -3.382      26.368      -8.783
  H       -3.810      26.510      -9.648
  H       -1.850      22.944      -8.523
  H       -3.251      23.949      -8.947
  H       -2.424      24.168      -7.373
  H       -5.974      31.727      -9.268
  H       -5.184      31.349      -7.756
  H       -6.923      31.502      -7.818

 3  4  5  6  7  8  9  10  11  12  13  23  28  29  30  31  32 0
 6-311+G(2d,p)
 ****
 33  34 0
 6-311+G(2d,p)
 ****
 1  2  14  15  16  17  18  19  20  21  22  24  25  26  27 0
 3-21G
 ****
 35  36  37  38  39  40  41  42  43  44  45 0
 3-21G
 ****


