%nproc=1
%NoSave
%Mem=1900MB
#P OB98/GEN NMR

erre ene a

0 1
  C      -38.422    -668.231    -570.660
  O      -39.606    -668.833    -571.145
  H      -38.635    -667.770    -569.694
  H      -38.087    -667.452    -571.351
  H      -37.633    -668.976    -570.528
  P      -39.542    -669.697    -572.491
  C      -39.492    -671.817    -571.029
  O      -38.888    -671.109    -572.105
  C      -39.347    -673.320    -571.248
  O      -40.093    -673.726    -572.421
  C      -37.912    -673.778    -571.492
  O      -37.179    -673.794    -570.282
  C      -38.156    -675.139    -572.124
  O      -38.463    -676.122    -571.125
  C      -39.402    -674.857    -572.999
  N      -39.061    -674.603    -574.403
  C      -39.377    -675.612    -575.303
  O      -39.904    -676.668    -574.973
  N      -39.016    -675.380    -576.602
  C      -38.308    -674.307    -577.062
  O      -37.817    -674.245    -578.184
  C      -38.069    -673.241    -576.078
  C      -38.435    -673.438    -574.812
  O      -38.925    -669.017    -573.669
  O      -41.073    -670.076    -572.769
  H      -41.432    -669.487    -573.458
  H      -38.709    -676.940    -571.604
  H      -39.197    -676.128    -577.260
  H      -37.568    -672.343    -576.416
  H      -38.241    -672.676    -574.063
  H      -40.092    -675.706    -572.968
  H      -37.288    -675.501    -572.676
  H      -37.431    -673.125    -572.233
  H      -39.779    -673.836    -570.379
  H      -40.554    -671.552    -570.989
  H      -39.015    -671.519    -570.088
  P      -35.598    -673.546    -570.273
  C      -35.699    -671.606    -568.596
  O      -35.339    -672.004    -569.912
  O      -34.875    -674.032    -571.481
  O      -35.095    -674.308    -568.958
  H      -34.368    -674.925    -569.201
  H      -35.484    -670.566    -568.467
  H      -35.139    -672.177    -567.885
  H      -36.745    -671.776    -568.445

 6  7  8  9  10  11  12  13  14  15  16  27  31  32  33  34  35 0
 6-311+G(2d,p)
 ****
 36  37 0
 6-311+G(2d,p)
 ****
 1  2  3  4  5  17  18  19  20  21  22  23  24  25 0
 3-21G
 ****
 26  28  29  30  38  39  40  41  42  43  44  45 0
 3-21G
 ****


