%nproc=1
%NoSave
%Mem=1900MB
#P OB98/GEN NMR

erre ene a

0 1
  C     -397.310     -18.656    -773.837
  O     -398.365     -17.780    -773.492
  H     -397.687     -19.417    -774.519
  H     -396.938     -19.151    -772.933
  H     -396.498     -18.111    -774.323
  P     -397.971     -16.380    -772.826
  C     -399.888     -16.595    -771.080
  O     -399.307     -15.813    -772.123
  C     -401.362     -16.220    -770.913
  O     -401.453     -14.831    -770.496
  C     -402.208     -16.385    -772.182
  O     -403.511     -16.846    -771.813
  C     -402.333     -14.959    -772.685
  O     -403.476     -14.776    -773.525
  C     -402.415     -14.198    -771.356
  N     -404.660      -9.725    -771.763
  C     -405.162     -10.954    -771.389
  N     -406.492     -11.019    -771.149
  N     -404.434     -12.030    -771.281
  C     -403.119     -11.814    -771.534
  C     -402.489     -10.650    -771.905
  C     -403.313      -9.472    -772.053
  O     -402.917      -8.362    -772.387
  N     -401.148     -10.870    -772.124
  C     -400.980     -12.173    -771.911
  N     -402.135     -12.785    -771.543
  O     -397.797     -15.426    -774.102
  O     -396.751     -16.392    -771.967
  H     -403.486     -13.846    -773.828
  H     -396.853     -15.392    -774.361
  H     -405.267      -8.924    -771.864
  H     -400.038     -12.695    -772.017
  H     -403.410     -14.276    -770.889
  H     -401.443     -14.675    -773.245
  H     -407.114     -10.224    -771.202
  H     -401.762     -17.055    -772.932
  H     -406.875     -11.908    -770.847
  H     -401.787     -16.834    -770.097
  H     -399.354     -16.404    -770.146
  H     -399.783     -17.662    -771.328
  P     -403.760     -18.439    -771.788
  C     -406.188     -18.741    -772.714
  O     -405.336     -18.701    -771.576
  O     -403.115     -18.879    -770.384
  O     -403.143     -19.176    -772.928
  H     -402.726     -19.759    -770.469
  H     -407.195     -18.923    -772.400
  H     -405.872     -19.526    -773.369
  H     -406.139     -17.805    -773.229

 6  7  8  9  10  11  12  13  14  15  26  29  33  34 0
 6-311+G(2d,p)
 ****
 36  38  39  40  41 0
 6-311+G(2d,p)
 ****
 1  2  3  4  5  16  17  18  19  20  21  22  23  24  25 0
 3-21G
 ****
 27  28  30  31  32  35  37  42  43  44  45  46  47 0
 3-21G
 ****
 48  49 0
 3-21G
 ****


