%nproc=1
%NoSave
%Mem=1900MB
#P OB98/GEN NMR

erre ene a

0 1
  C      -55.427       3.603     376.366
  O      -56.706       3.576     377.025
  P      -56.892       4.392     378.401
  C      -55.738       4.392     380.752
  O      -55.979       3.709     379.530
  C      -55.671       3.395     381.919
  O      -56.995       2.918     382.248
  C      -54.854       2.146     381.624
  O      -53.460       2.392     381.690
  C      -55.360       1.200     382.713
  O      -54.675       1.439     383.955
  C      -56.844       1.596     382.816
  N      -57.734       0.632     382.181
  C      -58.672       0.023     383.002
  O      -58.748       0.223     384.214
  N      -59.526      -0.855     382.385
  C      -59.478      -1.233     381.070
  O      -60.256      -2.041     380.581
  C      -58.407      -0.619     380.273
  C      -57.597       0.270     380.857
  O      -58.367       3.945     378.857
  O      -56.797       5.879     378.294
  H      -53.723       1.268     383.785
  H      -58.769       4.656     379.393
  H      -60.240      -1.289     382.951
  H      -58.320      -0.905     379.229
  H      -56.801       0.733     380.279
  H      -57.134       1.695     383.872
  H      -55.201       0.148     382.456
  H      -55.133       1.736     380.642
  H      -55.270       3.924     382.794
  H      -56.545       5.104     380.930
  H      -54.796       4.952     380.668
  P      -52.718       2.723     380.308
  C      -51.772       1.111     378.471
  O      -52.069       1.330     379.835
  O      -51.481       3.603     380.826
  O      -53.600       3.407     379.311
  H      -51.168       3.314     381.704
  H      -51.471       2.040     377.971
  H      -52.655       0.696     377.968
  H      -50.950       0.398     378.398
  H      -55.473       3.015     375.473
  H      -54.681       3.202     377.019
  H      -55.176       4.613     376.116

 3  4  5  6  7  8  9  10  11  12  13  23  28  29  30  31  32 0
 6-311+G(2d,p)
 ****
 33  34 0
 6-311+G(2d,p)
 ****
 1  2  14  15  16  17  18  19  20  21  22  24  25  26 0
 3-21G
 ****
 27  35  36  37  38  39  40  41  42  43  44  45 0
 3-21G
 ****


