%nproc=1
%NoSave
%Mem=1900MB
#P OB98/GEN NMR

erre ene a

0 1
  C      172.451     -59.239     -73.631
  O      171.243     -59.708     -73.059
  H      173.231     -59.249     -72.864
  H      172.320     -58.211     -73.982
  H      172.768     -59.876     -74.459
  P      170.012     -60.049     -74.025
  C      168.823     -57.760     -73.874
  O      169.557     -58.666     -74.695
  C      168.709     -56.394     -74.544
  O      168.010     -55.486     -73.632
  C      170.064     -55.739     -74.883
  O      169.877     -54.947     -76.066
  C      170.272     -54.852     -73.671
  O      171.296     -53.908     -73.879
  C      168.851     -54.318     -73.479
  N      168.641     -53.676     -72.193
  C      168.907     -52.315     -72.110
  O      169.292     -51.625     -73.052
  N      168.734     -51.749     -70.869
  C      168.329     -52.401     -69.742
  O      168.168     -51.842     -68.664
  C      168.088     -53.845     -69.888
  C      168.246     -54.409     -71.081
  O      168.910     -60.850     -73.412
  O      170.690     -60.831     -75.248
  H      170.593     -61.794     -75.117
  H      171.034     -53.260     -74.573
  H      168.923     -50.756     -70.792
  H      167.788     -54.393     -69.004
  H      168.084     -55.475     -71.231
  H      168.589     -53.626     -74.285
  H      170.580     -55.457     -72.810
  H      170.861     -56.471     -75.055
  H      168.080     -56.487     -75.439
  H      169.358     -57.663     -72.923
  H      167.826     -58.170     -73.689
  P      170.075     -55.534     -77.554
  C      171.942     -53.951     -78.374
  O      171.591     -55.284     -78.031
  O      169.055     -55.031     -78.532
  O      169.975     -57.123     -77.406
  H      169.533     -57.491     -78.196
  H      172.969     -53.918     -78.672
  H      171.796     -53.314     -77.526
  H      171.325     -53.616     -79.182

 6  7  8  9  10  11  12  13  14  15  16  27  31  32  33  34  35 0
 6-311+G(2d,p)
 ****
 36  37 0
 6-311+G(2d,p)
 ****
 1  2  3  4  5  17  18  19  20  21  22  23  24  25 0
 3-21G
 ****
 26  28  29  30  38  39  40  41  42  43  44  45 0
 3-21G
 ****


