%nproc=1
%NoSave
%Mem=1900MB
#P OB98/GEN NMR

erre ene a

0 1
  C      387.587     923.230    -197.906
  O      387.102     921.922    -198.120
  H      386.740     923.919    -197.886
  H      388.253     923.512    -198.730
  H      388.122     923.301    -196.958
  P      388.038     920.680    -197.753
  C      387.643     918.478    -199.040
  O      387.207     919.330    -197.983
  C      387.565     917.000    -198.654
  O      388.349     916.767    -197.467
  C      386.124     916.557    -198.324
  O      385.375     916.138    -199.443
  C      386.366     915.404    -197.369
  O      386.532     914.157    -198.072
  C      387.682     915.786    -196.659
  N      387.359     914.775    -191.654
  C      387.424     913.886    -192.729
  N      387.353     912.576    -192.401
  N      387.525     914.267    -193.965
  C      387.474     915.607    -194.131
  C      387.403     916.579    -193.155
  C      387.370     916.151    -191.777
  O      387.327     916.895    -190.798
  N      387.340     917.831    -193.708
  C      387.286     917.620    -195.009
  N      387.462     916.285    -195.316
  O      388.141     920.749    -196.150
  O      389.410     920.702    -198.364
  H      386.379     913.434    -197.443
  H      389.010     920.414    -195.856
  H      387.312     914.421    -190.715
  H      387.178     918.386    -195.767
  H      388.355     914.922    -196.579
  H      385.524     915.268    -196.692
  H      387.178     912.228    -191.465
  H      385.599     917.346    -197.785
  H      387.200     911.895    -193.163
  H      388.003     916.392    -199.453
  H      388.674     918.747    -199.254
  H      387.057     918.661    -199.947
  P      384.348     917.125    -200.170
  C      382.197     915.835    -199.347
  O      382.980     916.352    -200.417
  O      384.965     917.276    -201.634
  O      384.161     918.448    -199.506
  H      385.474     918.090    -201.722
  H      381.325     915.357    -199.742
  H      381.903     916.636    -198.701
  H      382.774     915.124    -198.794

 6  7  8  9  10  11  12  13  14  15  26  29  33  34 0
 6-311+G(2d,p)
 ****
 36  38  39  40  41 0
 6-311+G(2d,p)
 ****
 1  2  3  4  5  16  17  18  19  20  21  22  23  24  25 0
 3-21G
 ****
 27  28  30  31  32  35  37  42  43  44  45  46  47 0
 3-21G
 ****
 48  49 0
 3-21G
 ****


