%nproc=1
%NoSave
%Mem=1900MB
#P OB98/GEN NMR

erre ene a

0 1
  C       58.775      41.589    -179.713
  O       59.477      41.475    -180.938
  P       61.049      41.151    -180.864
  C       61.747      43.653    -180.777
  O       61.733      42.394    -180.113
  C       63.153      44.251    -180.811
  O       63.560      44.569    -179.458
  C       64.211      43.326    -181.420
  O       65.127      44.135    -182.160
  C       64.924      42.759    -180.205
  O       66.249      42.331    -180.521
  C       64.842      43.942    -179.228
  N       64.987      43.520    -177.837
  C       65.557      44.443    -176.955
  O       65.981      45.519    -177.377
  N       65.677      44.102    -175.628
  C       65.359      42.905    -175.243
  N       65.495      42.620    -173.918
  C       64.871      41.862    -176.166
  C       64.690      42.241    -177.430
  O       61.524      41.330    -182.381
  O       61.383      39.800    -180.322
  H       66.683      42.047    -179.688
  H       62.260      40.723    -182.591
  H       64.655      40.870    -175.797
  H       64.313      41.548    -178.173
  H       65.620      44.683    -179.451
  H       64.367      41.898    -179.814
  H       63.781      42.561    -182.073
  H       63.111      45.196    -181.368
  H       65.846      43.348    -173.309
  H       61.093      44.346    -180.238
  H       65.273      41.714    -173.524
  H       61.351      43.534    -181.792
  P       65.355      43.777    -183.705
  C       67.386      42.286    -183.209
  O       66.060      42.337    -183.701
  O       66.588      44.736    -184.076
  O       64.217      43.973    -184.652
  H       66.789      44.660    -185.027
  H       67.691      41.239    -183.132
  H       67.446      42.743    -182.218
  H       68.060      42.798    -183.901
  H       57.746      41.805    -179.910
  H       59.200      42.380    -179.131
  H       58.849      40.669    -179.172

 3  4  5  6  7  8  9  10  11  12  13  21  23  27  28  29  30  32 0
 6-311+G(2d,p)
 ****
 34  35 0
 6-311+G(2d,p)
 ****
 1  2  14  15  16  17  18  19  20  22  24  25  26 0
 3-21G
 ****
 31  33  36  37  38  39  40  41  42  43  44  45  46 0
 3-21G
 ****


