%nproc=1
%NoSave
%Mem=1900MB
#P OB98/GEN NMR

erre ene a

0 1
  C     -800.702     350.053    -898.170
  O     -801.906     349.899    -898.870
  H     -799.939     350.477    -898.840
  H     -800.330     349.098    -897.790
  H     -800.830     350.755    -897.330
  P     -803.134     349.263    -898.060
  C     -803.028     346.970    -899.280
  O     -802.842     347.686    -898.040
  C     -802.977     345.472    -899.010
  O     -801.606     345.028    -898.850
  C     -803.722     345.015    -897.780
  O     -805.119     344.854    -898.070
  C     -803.054     343.669    -897.510
  O     -803.640     342.649    -898.380
  C     -801.590     343.929    -897.920
  N     -797.808     342.174    -894.910
  C     -798.621     341.538    -895.810
  N     -799.635     342.066    -896.530
  C     -799.787     343.378    -896.260
  C     -799.036     344.161    -895.400
  C     -798.017     343.507    -894.690
  N     -797.200     344.138    -893.780
  N     -799.495     345.448    -895.380
  C     -800.432     345.482    -896.280
  N     -800.690     344.241    -896.830
  O     -804.499     349.673    -898.510
  O     -802.768     349.701    -896.570
  H     -804.604     342.635    -898.170
  H     -801.808     349.601    -896.410
  H     -798.435     340.487    -895.950
  H     -800.982     346.377    -896.600
  H     -801.159     343.063    -898.440
  H     -803.199     343.302    -896.490
  H     -803.540     345.665    -896.920
  H     -803.384     344.958    -899.920
  H     -802.249     347.249    -900.000
  H     -796.619     343.565    -893.210
  H     -797.427     345.092    -893.520
  H     -803.999     347.259    -899.670
  P     -806.147     344.457    -896.910
  C     -807.079     342.396    -898.150
  O     -806.346     342.887    -897.020
  O     -807.427     345.259    -896.920
  O     -805.323     344.654    -895.540
  H     -805.936     344.702    -894.780
  H     -807.138     341.329    -898.100
  H     -806.580     342.684    -899.051
  H     -808.066     342.809    -898.141

 6  7  8  9  10  11  12  13  14  15  25  28  32  33  34  35 0
 6-311+G(2d,p)
 ****
 36  39  40 0
 6-311+G(2d,p)
 ****
 1  2  3  4  5  16  17  18  19  20  21  22  23  24 0
 3-21G
 ****
 26  27  29  30  31  37  38  41  42  43  44  45  46  47 0
 3-21G
 ****
 48 0
 3-21G
 ****


