%nproc=1
%NoSave
%Mem=1900MB
#P OB98/GEN NMR

erre ene a

0 1
  C      -83.675     -98.388    -107.002
  O      -83.226     -98.674    -105.693
  P      -83.455     -97.646    -104.484
  C      -80.946     -97.208    -104.115
  O      -82.193     -96.654    -104.510
  C      -80.116     -96.203    -103.318
  O      -79.864     -95.024    -104.134
  C      -80.767     -95.729    -102.010
  O      -79.696     -95.510    -101.084
  C      -81.398     -94.412    -102.416
  O      -81.684     -93.572    -101.304
  C      -80.343     -93.878    -103.397
  N      -80.886     -92.843    -104.274
  C      -80.960     -91.551    -103.750
  O      -80.650     -91.336    -102.575
  N      -81.432     -90.539    -104.549
  C      -81.890     -90.819    -105.730
  N      -82.341     -89.775    -106.478
  C      -81.948     -92.188    -106.272
  C      -81.421     -93.141    -105.505
  O      -83.731     -98.274    -103.159
  O      -84.643     -96.708    -105.005
  H      -80.845     -93.396    -100.826
  H      -85.511     -97.174    -104.926
  H      -82.391     -92.381    -107.239
  H      -81.416     -94.178    -105.819
  H      -79.489     -93.456    -102.853
  H      -82.342     -94.603    -102.943
  H      -81.492     -96.436    -101.600
  H      -79.141     -96.662    -103.107
  H      -82.270     -88.849    -106.073
  H      -80.393     -97.481    -105.019
  H      -82.641     -89.872    -107.439
  H      -81.110     -98.124    -103.535
  P      -79.837     -95.900     -99.537
  C      -80.947     -93.730     -98.752
  O      -81.117     -95.119     -98.973
  O      -78.593     -95.739     -98.727
  O      -80.323     -97.428     -99.557
  H      -80.193     -97.821     -98.673
  H      -81.932     -93.262     -98.645
  H      -80.420     -93.260     -99.587
  H      -80.381     -93.573     -97.831
  H      -83.422     -99.200    -107.651
  H      -83.206     -97.492    -107.352
  H      -84.737     -98.255    -106.994

 3  4  5  6  7  8  9  10  11  12  13  23  27  28  29  30  32 0
 6-311+G(2d,p)
 ****
 34  35 0
 6-311+G(2d,p)
 ****
 1  2  14  15  16  17  18  19  20  21  22  24  25  26 0
 3-21G
 ****
 31  33  36  37  38  39  40  41  42  43  44  45  46 0
 3-21G
 ****


