%nproc=1
%NoSave
%Mem=1900MB
#P OB98/GEN NMR

erre ene a

0 1
  C      367.435     469.915      67.368
  O      366.906     468.950      66.452
  P      366.701     467.456      67.008
  C      369.058     466.603      66.362
  O      367.658     466.472      66.172
  C      369.840     466.010      65.184
  O      369.663     464.563      65.117
  C      369.423     466.572      63.821
  O      370.586     466.609      62.987
  C      368.478     465.512      63.290
  O      368.321     465.607      61.876
  C      369.170     464.249      63.800
  N      366.514     460.943      60.955
  C      367.323     461.974      60.624
  N      367.975     462.824      61.446
  C      367.761     462.492      62.732
  C      366.957     461.477      63.220
  C      366.309     460.676      62.265
  N      365.464     459.645      62.602
  N      366.952     461.485      64.603
  C      367.735     462.491      64.937
  N      368.271     463.111      63.844
  O      365.232     467.079      66.496
  O      366.806     467.343      68.492
  H      369.209     465.710      61.476
  H      364.610     467.068      67.245
  H      367.457     462.142      59.560
  H      367.942     462.814      65.947
  H      370.024     463.959      63.174
  H      367.489     465.629      63.752
  H      368.959     467.563      63.859
  H      370.907     466.198      65.347
  H      369.362     466.097      67.283
  H      365.013     459.136      61.855
  H      365.266     459.465      63.574
  H      369.302     467.661      66.508
  P      371.359     468.010      62.898
  C      372.185     467.509      60.492
  O      372.533     467.803      61.829
  O      372.131     468.105      64.298
  O      370.466     469.185      62.668
  H      372.294     469.037      64.529
  H      372.851     468.061      59.824
  H      371.149     467.780      60.263
  H      372.322     466.436      60.315
  H      367.522     470.862      66.878
  H      368.400     469.597      67.703
  H      366.778     470.007      68.208

 3  4  5  6  7  8  9  10  11  12  22  25  29  30  31  32 0
 6-311+G(2d,p)
 ****
 33  36  37 0
 6-311+G(2d,p)
 ****
 1  2  13  14  15  16  17  18  19  20  21  23  24  26 0
 3-21G
 ****
 27  28  34  35  38  39  40  41  42  43  44  45  46  47  48 0
 3-21G
 ****


