%nproc=1
%NoSave
%Mem=1900MB
#P OB98/GEN NMR

erre ene a

0 1
  C       42.917    -530.847    -154.885
  O       43.195    -529.841    -153.898
  P       42.054    -529.499    -152.829
  C       43.740    -529.156    -150.874
  O       42.694    -528.601    -151.665
  C       44.789    -528.089    -150.549
  O       45.420    -527.579    -151.742
  C       44.220    -526.866    -149.842
  O       44.073    -527.093    -148.447
  C       45.314    -525.842    -150.096
  O       46.400    -526.048    -149.172
  C       45.759    -526.190    -151.524
  N       46.278    -522.136    -154.609
  C       47.093    -522.662    -153.669
  N       46.877    -523.731    -152.875
  C       45.682    -524.282    -153.138
  C       44.745    -523.859    -154.065
  C       45.079    -522.728    -154.827
  N       44.249    -522.196    -155.786
  N       43.629    -524.671    -154.043
  C       43.895    -525.579    -153.126
  N       45.119    -525.383    -152.546
  O       41.798    -530.907    -152.109
  O       40.799    -528.962    -153.433
  H       46.597    -527.004    -149.176
  H       40.856    -530.990    -151.867
  H       48.045    -522.156    -153.533
  H       43.239    -526.396    -152.854
  H       46.842    -526.088    -151.656
  H       44.968    -524.815    -149.957
  H       43.281    -526.541    -150.311
  H       45.560    -528.552    -149.920
  H       44.207    -529.992    -151.405
  H       44.568    -521.397    -156.310
  H       43.363    -522.650    -155.966
  H       43.309    -529.574    -149.958
  P       42.601    -526.929    -147.827
  C       43.161    -528.754    -146.066
  O       42.705    -527.438    -146.314
  O       41.769    -528.076    -148.569
  O       41.995    -525.583    -148.029
  H       40.834    -527.807    -148.662
  H       43.462    -528.832    -145.015
  H       44.022    -529.000    -146.695
  H       42.352    -529.466    -146.259
  H       43.767    -530.964    -155.524
  H       42.071    -530.550    -155.468
  H       42.706    -531.776    -154.398

 3  4  5  6  7  8  9  10  11  12  22  25  29  30  31  32 0
 6-311+G(2d,p)
 ****
 33  36  37 0
 6-311+G(2d,p)
 ****
 1  2  13  14  15  16  17  18  19  20  21  23  24  26 0
 3-21G
 ****
 27  28  34  35  38  39  40  41  42  43  44  45  46  47  48 0
 3-21G
 ****


