%nproc=1
%NoSave
%Mem=1900MB
#P OB98/GEN NMR

erre ene a

0 1
  C     -506.968    -478.620    -247.341
  O     -507.135    -479.224    -248.605
  H     -506.278    -479.231    -246.748
  H     -507.927    -478.559    -246.815
  H     -506.543    -477.620    -247.457
  P     -508.158    -478.512    -249.615
  C     -506.795    -478.999    -251.747
  O     -507.969    -479.303    -251.001
  C     -505.612    -479.820    -251.233
  O     -506.015    -481.213    -251.143
  C     -504.376    -479.752    -252.140
  O     -503.199    -479.770    -251.328
  C     -504.463    -481.042    -252.932
  O     -503.191    -481.449    -253.444
  C     -505.066    -481.989    -251.891
  N     -504.292    -486.726    -253.592
  C     -503.522    -485.889    -252.860
  N     -503.819    -484.643    -252.429
  C     -505.075    -484.310    -252.783
  C     -505.978    -485.053    -253.519
  C     -505.534    -486.321    -253.951
  N     -506.294    -487.166    -254.722
  N     -507.143    -484.347    -253.714
  C     -506.958    -483.197    -253.086
  N     -505.714    -483.126    -252.525
  O     -508.039    -477.029    -249.708
  O     -509.571    -479.057    -249.096
  H     -502.531    -481.384    -252.721
  H     -509.544    -480.020    -248.942
  H     -502.542    -486.265    -252.597
  H     -507.681    -482.386    -253.025
  H     -504.312    -482.388    -251.199
  H     -505.141    -480.920    -253.784
  H     -504.369    -478.877    -252.783
  H     -505.375    -479.488    -250.210
  H     -506.566    -477.932    -251.676
  H     -505.899    -488.056    -254.978
  H     -507.223    -486.886    -254.990
  H     -506.995    -479.239    -252.798
  P     -502.760    -478.433    -250.570
  C     -501.665    -479.155    -248.348
  O     -501.444    -478.749    -249.691
  O     -503.840    -477.711    -249.841
  O     -502.162    -477.533    -251.757
  H     -502.463    -476.602    -251.636
  H     -500.725    -479.334    -247.870
  H     -502.247    -480.053    -248.338
  H     -502.190    -478.384    -247.824

 6  7  8  9  10  11  12  13  14  15  25  28  32  33  34  35 0
 6-311+G(2d,p)
 ****
 36  39  40 0
 6-311+G(2d,p)
 ****
 1  2  3  4  5  16  17  18  19  20  21  22  23  24 0
 3-21G
 ****
 26  27  29  30  31  37  38  41  42  43  44  45  46  47 0
 3-21G
 ****
 48 0
 3-21G
 ****


