%nproc=1
%NoSave
%Mem=1900MB
#P OB98/GEN NMR

erre ene a

0 1
  C      202.148    -120.117    -703.112
  O      202.208    -118.844    -702.492
  H      202.152    -120.905    -702.348
  H      201.224    -120.185    -703.686
  H      202.995    -120.250    -703.789
  P      203.504    -118.562    -701.578
  C      202.684    -119.866    -699.498
  O      203.628    -119.798    -700.557
  C      203.331    -120.455    -698.249
  O      202.295    -120.649    -697.246
  C      204.032    -121.815    -698.489
  O      205.359    -121.798    -697.951
  C      203.196    -122.800    -697.684
  O      203.978    -123.848    -697.111
  C      202.562    -121.913    -696.616
  N      200.681    -125.750    -693.825
  C      201.921    -125.216    -693.886
  N      202.336    -124.125    -694.573
  C      201.307    -123.560    -695.231
  C      199.983    -123.982    -695.249
  C      199.675    -125.139    -694.515
  N      198.437    -125.717    -694.504
  N      199.215    -123.143    -696.051
  C      200.064    -122.270    -696.535
  N      201.343    -122.493    -696.087
  O      203.031    -117.342    -700.652
  O      204.736    -118.224    -702.344
  H      203.348    -124.537    -696.802
  H      203.615    -116.578    -700.821
  H      202.678    -125.722    -693.302
  H      199.826    -121.494    -697.260
  H      203.252    -121.729    -695.776
  H      202.434    -123.240    -698.333
  H      204.058    -122.095    -699.550
  H      204.048    -119.729    -697.841
  H      201.838    -120.501    -699.801
  H      198.333    -126.614    -694.053
  H      197.717    -125.332    -695.102
  H      202.305    -118.854    -699.295
  P      206.547    -121.702    -699.042
  C      206.716    -124.269    -699.480
  O      206.427    -122.977    -700.016
  O      207.864    -122.009    -698.168
  O      206.649    -120.380    -699.718
  H      208.503    -121.271    -698.248
  H      206.593    -125.008    -700.244
  H      206.047    -124.477    -698.671
  H      207.725    -124.290    -699.123

 6  7  8  9  10  11  12  13  14  15  25  28  32  33  34  35 0
 6-311+G(2d,p)
 ****
 36  39  40 0
 6-311+G(2d,p)
 ****
 1  2  3  4  5  16  17  18  19  20  21  22  23  24 0
 3-21G
 ****
 26  27  29  30  31  37  38  41  42  43  44  45  46  47  48 0
 3-21G
 ****


