%nproc=1
%NoSave
%Mem=1900MB
#P OB98/GEN NMR

erre ene a

0 1
  C     -377.289    -173.533     164.513
  O     -377.398    -174.857     165.003
  P     -377.309    -175.165     166.567
  C     -375.363    -176.925     166.420
  O     -375.834    -175.684     166.895
  C     -374.411    -177.526     167.463
  O     -373.171    -176.794     167.483
  C     -375.011    -177.476     168.865
  O     -375.659    -178.699     169.176
  C     -373.799    -177.200     169.736
  O     -373.075    -178.415     169.993
  C     -372.970    -176.263     168.821
  N     -373.311    -174.831     168.801
  C     -372.300    -173.878     168.918
  O     -371.109    -174.158     169.009
  N     -372.714    -172.570     168.952
  C     -374.004    -172.140     168.836
  O     -374.385    -171.005     169.107
  C     -374.980    -173.160     168.443
  C     -374.601    -174.438     168.468
  O     -378.206    -176.481     166.729
  O     -377.763    -174.064     167.467
  H     -372.253    -178.168     170.456
  H     -379.098    -176.251     167.047
  H     -372.001    -171.885     169.178
  H     -375.987    -172.845     168.206
  H     -375.316    -175.220     168.219
  H     -371.900    -176.336     169.054
  H     -374.092    -176.808     170.708
  H     -375.705    -176.630     168.952
  H     -374.185    -178.563     167.181
  H     -374.848    -176.792     165.463
  H     -376.205    -177.603     166.243
  P     -376.512    -178.825     170.525
  C     -374.675    -180.376     171.409
  O     -375.449    -179.221     171.660
  O     -377.723    -179.693     170.445
  O     -376.893    -177.302     170.857
  H     -377.800    -177.111     170.539
  H     -373.881    -180.437     172.157
  H     -374.224    -180.332     170.414
  H     -375.304    -181.270     171.493
  H     -377.374    -173.539     163.446
  H     -376.340    -173.126     164.793
  H     -378.071    -172.933     164.929

 3  4  5  6  7  8  9  10  11  12  13  23  28  29  30  31  32 0
 6-311+G(2d,p)
 ****
 33  34 0
 6-311+G(2d,p)
 ****
 1  2  14  15  16  17  18  19  20  21  22  24  25  26  27 0
 3-21G
 ****
 35  36  37  38  39  40  41  42  43  44  45 0
 3-21G
 ****


