%nproc=1
%NoSave
%Mem=1900MB
#P OB98/GEN NMR

erre ene a

0 1
  C       21.194      71.400     240.142
  O       20.503      70.466     239.338
  H       22.087      71.728     239.603
  H       21.504      70.939     241.083
  H       20.568      72.274     240.342
  P       19.146      69.825     239.906
  C       20.589      67.703     240.267
  O       19.644      68.601     240.825
  C       20.803      66.514     241.199
  O       21.267      66.942     242.498
  C       19.550      65.695     241.492
  O       19.131      64.882     240.408
  C       20.043      64.877     242.671
  O       20.911      63.829     242.206
  C       20.828      65.946     243.466
  N       20.025      66.572     244.517
  C       20.678      66.846     245.724
  O       21.866      66.560     245.875
  N       19.961      67.414     246.751
  C       18.696      67.661     246.595
  N       18.032      68.214     247.648
  C       17.964      67.366     245.348
  C       18.680      66.832     244.361
  O       18.108      69.480     238.887
  O       18.638      70.869     241.008
  H       21.644      64.258     241.729
  H       17.794      70.524     241.385
  H       16.903      67.564     245.279
  H       18.210      66.583     243.416
  H       21.730      65.514     243.918
  H       19.235      64.402     243.234
  H       18.732      66.342     241.833
  H       21.598      65.892     240.763
  H       18.560      68.402     248.490
  H       21.525      68.248     240.106
  H       17.033      68.368     247.642
  H       20.228      67.326     239.305
  P       17.601      64.387     240.419
  C       18.371      61.925     240.013
  O       17.635      62.836     240.811
  O       17.210      64.392     238.869
  O       16.671      65.215     241.251
  H       16.720      65.203     238.638
  H       18.282      60.940     240.421
  H       19.401      62.214     240.000
  H       17.986      61.933     239.015

 6  7  8  9  10  11  12  13  14  15  16  26  30  31  32  33  35 0
 6-311+G(2d,p)
 ****
 37  38 0
 6-311+G(2d,p)
 ****
 1  2  3  4  5  17  18  19  20  21  22  23  24  25 0
 3-21G
 ****
 27  28  29  34  36  39  40  41  42  43  44  45  46 0
 3-21G
 ****


