%nproc=1
%NoSave
%Mem=1900MB
#P OB98/GEN NMR

erre ene a

0 1
  C      522.299     624.118     242.006
  O      522.999     622.903     242.192
  H      522.899     624.765     241.358
  H      522.157     624.620     242.971
  H      521.335     623.940     241.529
  P      522.293     621.725     243.021
  C      520.854     619.702     242.361
  O      521.236     621.034     242.036
  C      521.170     618.756     241.209
  O      520.287     619.047     240.098
  C      522.616     618.862     240.698
  O      523.071     617.560     240.346
  C      522.480     619.710     239.444
  O      523.531     619.462     238.507
  C      521.098     619.305     238.932
  N      521.595     621.883     234.616
  C      522.333     620.831     235.116
  N      523.387     620.416     234.373
  N      522.080     620.234     236.256
  C      520.995     620.746     236.885
  C      520.178     621.784     236.504
  C      520.481     622.446     235.240
  O      519.873     623.387     234.758
  N      519.192     622.022     237.430
  C      519.413     621.133     238.384
  N      520.503     620.342     238.105
  O      521.739     622.123     244.352
  O      523.441     620.615     243.173
  H      523.541     618.491     238.336
  H      523.854     620.661     244.053
  H      521.841     622.317     233.744
  H      518.829     621.024     239.279
  H      521.133     618.392     238.328
  H      522.501     620.777     239.709
  H      523.640     620.808     233.483
  H      523.292     619.315     241.432
  H      523.928     619.632     234.710
  H      520.951     617.726     241.532
  H      519.783     619.691     242.566
  H      521.390     619.385     243.265
  P      524.497     617.068     240.903
  C      525.431     617.433     243.282
  O      524.369     616.888     242.501
  O      525.678     617.845     240.438
  O      524.568     615.540     240.395
  H      525.508     615.302     240.258
  H      525.239     617.255     244.319
  H      525.498     618.487     243.108
  H      526.353     616.967     243.005

 6  7  8  9  10  11  12  13  14  15  26  29  33  34 0
 6-311+G(2d,p)
 ****
 36  38  39  40  41 0
 6-311+G(2d,p)
 ****
 1  2  3  4  5  16  17  18  19  20  21  22  23  24  25 0
 3-21G
 ****
 27  28  30  31  32  35  37  42  43  44  45  46  47 0
 3-21G
 ****
 48  49 0
 3-21G
 ****


