%nproc=1
%NoSave
%Mem=1900MB
#P OB98/GEN NMR

erre ene a

0 1
  C      123.852    -893.290    -328.101
  O      125.151    -892.960    -328.556
  H      123.342    -893.860    -328.884
  H      123.279    -892.380    -327.899
  H      123.907    -893.900    -327.193
  P      126.085    -892.060    -327.623
  C      127.529    -894.190    -327.387
  O      126.954    -893.070    -326.719
  C      127.839    -895.310    -326.382
  O      128.649    -894.730    -325.313
  C      126.566    -895.890    -325.751
  O      126.494    -897.310    -325.852
  C      126.567    -895.290    -324.339
  O      125.882    -896.040    -323.374
  C      128.068    -895.070    -324.055
  N      128.325    -894.020    -323.066
  C      128.560    -894.420    -321.763
  O      128.587    -895.590    -321.380
  N      128.794    -893.400    -320.859
  C      128.794    -892.070    -321.146
  O      129.015    -891.210    -320.294
  C      128.531    -891.710    -322.552
  C      128.304    -892.670    -323.429
  O      125.398    -890.970    -326.867
  O      127.182    -891.460    -328.646
  H      126.117    -895.690    -322.485
  H      126.960    -890.530    -328.854
  H      128.974    -893.690    -319.921
  H      128.492    -890.670    -322.791
  H      128.074    -892.450    -324.465
  H      128.514    -895.990    -323.704
  H      126.069    -894.310    -324.388
  H      125.677    -895.540    -326.277
  H      128.431    -896.090    -326.884
  H      128.460    -893.850    -327.879
  H      126.825    -894.560    -328.143
  P      125.487    -898.100    -326.806
  C      127.525    -898.610    -328.369
  O      126.166    -898.220    -328.247
  O      124.064    -897.660    -326.770
  O      125.546    -899.620    -326.237
  H      124.639    -900.000    -326.374
  H      127.798    -898.634    -329.403
  H      127.656    -899.583    -327.943
  H      128.145    -897.908    -327.852

 6  7  8  9  10  11  12  13  14  15  16  26  31  32  33  34  35 0
 6-311+G(2d,p)
 ****
 36  37 0
 6-311+G(2d,p)
 ****
 1  2  3  4  5  17  18  19  20  21  22  23  24  25 0
 3-21G
 ****
 27  28  29  30  38  39  40  41  42  43  44  45 0
 3-21G
 ****


