%nproc=1
%NoSave
%Mem=1900MB
#P OB98/GEN NMR

erre ene a

0 1
  C      -58.449      -6.634     -30.639
  O      -58.768      -5.906     -29.474
  H      -59.383      -6.934     -31.125
  H      -57.886      -7.536     -30.390
  H      -57.877      -6.014     -31.333
  P      -57.587      -5.505     -28.460
  C      -58.118      -2.995     -28.418
  O      -58.140      -4.209     -27.676
  C      -59.425      -2.783     -29.183
  O      -60.527      -2.675     -28.244
  C      -59.436      -1.521     -30.054
  O      -59.951      -1.840     -31.349
  C      -60.387      -0.586     -29.322
  O      -60.961       0.386     -30.191
  C      -61.360      -1.589     -28.693
  N      -62.140      -1.019     -27.601
  C      -63.082      -0.046     -27.948
  O      -63.196       0.316     -29.120
  N      -63.843       0.522     -26.959
  C      -63.646       0.190     -25.724
  N      -64.427       0.797     -24.789
  C      -62.630      -0.799     -25.305
  C      -61.925      -1.362     -26.286
  O      -56.250      -5.329     -29.098
  O      -57.617      -6.644     -27.338
  H      -60.237       0.818     -30.696
  H      -56.749      -6.661     -26.864
  H      -62.495      -1.035     -24.261
  H      -61.164      -2.105     -26.073
  H      -62.056      -1.981     -29.447
  H      -59.841      -0.054     -28.533
  H      -58.453      -1.073     -30.176
  H      -59.623      -3.681     -29.782
  H      -65.112       1.466     -25.117
  H      -57.271      -3.024     -29.113
  H      -64.357       0.620     -23.798
  H      -57.979      -2.166     -27.715
  P      -59.259      -1.092     -32.589
  C      -59.055      -2.677     -34.627
  O      -59.853      -1.725     -33.941
  O      -57.752      -1.628     -32.542
  O      -59.323       0.398     -32.500
  H      -57.171      -0.963     -32.129
  H      -59.572      -3.011     -35.502
  H      -58.865      -3.512     -33.985
  H      -58.127      -2.226     -34.911

 6  7  8  9  10  11  12  13  14  15  16  26  30  31  32  33  35 0
 6-311+G(2d,p)
 ****
 37  38 0
 6-311+G(2d,p)
 ****
 1  2  3  4  5  17  18  19  20  21  22  23  24  25 0
 3-21G
 ****
 27  28  29  34  36  39  40  41  42  43  44  45  46 0
 3-21G
 ****


