%nproc=1
%NoSave
%Mem=1900MB
#P OB98/GEN NMR

erre ene a

0 1
  C     -131.405     192.479     -42.370
  O     -132.689     192.170     -42.890
  P     -132.861     192.122     -44.487
  C     -132.647     193.883     -46.402
  O     -132.752     193.639     -45.008
  C     -132.466     195.376     -46.678
  O     -131.213     195.807     -46.069
  C     -132.403     195.761     -48.161
  O     -132.975     197.070     -48.279
  C     -130.910     195.830     -48.435
  O     -130.596     196.617     -49.584
  C     -130.407     196.403     -47.112
  N     -125.779     198.335     -46.403
  C     -126.971     198.974     -46.702
  N     -126.924     200.322     -46.757
  N     -128.100     198.351     -46.921
  C     -127.992     196.999     -46.810
  C     -126.862     196.252     -46.557
  C     -125.629     196.960     -46.277
  O     -124.574     196.436     -45.926
  N     -127.128     194.905     -46.614
  C     -128.428     194.845     -46.818
  N     -129.008     196.088     -46.899
  O     -134.409     191.772     -44.668
  O     -131.965     191.163     -45.209
  H     -131.117     196.270     -50.337
  H     -134.542     190.808     -44.774
  H     -124.945     198.872     -46.219
  H     -129.008     193.939     -46.914
  H     -130.515     197.491     -47.054
  H     -130.517     194.818     -48.606
  H     -126.099     200.869     -46.571
  H     -132.920     195.056     -48.817
  H     -127.795     200.819     -46.945
  H     -133.274     195.925     -46.172
  H     -133.574     193.553     -46.890
  H     -131.811     193.304     -46.815
  P     -134.331     197.219     -49.131
  C     -134.973     197.331     -51.636
  O     -133.941     197.190     -50.681
  O     -134.737     198.754     -48.881
  O     -135.436     196.306     -48.707
  H     -135.708     198.838     -48.887
  H     -134.535     197.689     -52.578
  H     -135.729     198.050     -51.310
  H     -135.444     196.358     -51.811
  H     -131.443     192.475     -41.301
  H     -131.105     193.447     -42.712
  H     -130.699     191.748     -42.705

 3  4  5  6  7  8  9  10  11  12  23  26  30  31 0
 6-311+G(2d,p)
 ****
 33  35  36  37  38 0
 6-311+G(2d,p)
 ****
 1  2  13  14  15  16  17  18  19  20  21  22  24  25 0
 3-21G
 ****
 27  28  29  32  34  39  40  41  42  43  44  45  46  47  48  49 0
 3-21G
 ****


