%nproc=1
%NoSave
%Mem=1900MB
#P OB98/GEN NMR

erre ene a

0 1
  C     -590.108    -965.514    1436.306
  O     -589.323    -966.456    1435.580
  P     -589.852    -967.919    1435.186
  C     -588.589    -968.295    1432.947
  O     -588.738    -968.687    1434.317
  C     -587.361    -968.965    1432.302
  O     -586.168    -968.417    1432.799
  C     -587.272    -970.472    1432.553
  O     -588.213    -971.179    1431.731
  C     -585.808    -970.738    1432.187
  O     -585.631    -970.853    1430.773
  C     -585.129    -969.423    1432.714
  N     -584.455    -969.633    1434.007
  C     -583.336    -968.850    1434.254
  O     -582.915    -968.074    1433.387
  N     -582.724    -968.978    1435.478
  C     -583.111    -969.873    1436.348
  N     -582.464    -969.927    1437.518
  C     -584.248    -970.789    1436.065
  C     -584.863    -970.604    1434.900
  O     -591.225    -967.937    1434.550
  O     -589.874    -968.744    1436.567
  H     -586.094    -971.662    1430.487
  H     -590.590    -969.395    1436.559
  H     -584.538    -971.541    1436.807
  H     -585.718    -971.223    1434.635
  H     -584.374    -969.037    1431.994
  H     -585.413    -971.636    1432.655
  H     -587.453    -970.681    1433.609
  H     -587.428    -968.747    1431.209
  H     -581.695    -969.309    1437.683
  H     -588.464    -967.183    1432.931
  H     -582.705    -970.589    1438.261
  H     -589.509    -968.539    1432.419
  P     -589.235    -972.205    1432.419
  C     -591.111    -970.509    1432.931
  O     -590.711    -971.653    1432.143
  O     -588.932    -972.578    1433.816
  O     -589.175    -973.494    1431.446
  H     -589.337    -974.290    1431.975
  H     -591.927    -969.994    1432.416
  H     -590.287    -969.824    1433.071
  H     -591.474    -970.866    1433.901
  H     -589.545    -964.615    1436.448
  H     -590.369    -965.926    1437.258
  H     -590.999    -965.294    1435.756

 3  4  5  6  7  8  9  10  11  12  13  23  27  28  29  30  32 0
 6-311+G(2d,p)
 ****
 34  35 0
 6-311+G(2d,p)
 ****
 1  2  14  15  16  17  18  19  20  21  22  24  25  26 0
 3-21G
 ****
 31  33  36  37  38  39  40  41  42  43  44  45  46 0
 3-21G
 ****


