%nproc=1
%NoSave
%Mem=1900MB
#P OB98/GEN NMR

erre ene a

0 1
  C      -86.368      19.787     -99.810
  O      -86.257      20.426    -101.066
  H      -85.537      20.081     -99.164
  H      -87.306      20.093     -99.340
  H      -86.375      18.701     -99.937
  P      -84.926      20.113    -101.906
  C      -83.609      22.290    -101.438
  O      -83.726      20.899    -101.180
  C      -82.196      22.766    -101.108
  O      -82.160      24.210    -101.252
  C      -81.734      22.417     -99.683
  O      -80.443      21.795     -99.712
  C      -81.608      23.762     -98.994
  O      -80.544      23.806     -98.050
  C      -81.381      24.715    -100.161
  N      -80.062      28.855     -97.494
  C      -79.332      27.808     -97.936
  N      -79.722      26.786     -98.724
  C      -81.008      26.932     -99.088
  C      -81.871      27.957     -98.738
  C      -81.355      28.945     -97.882
  N      -82.114      29.983     -97.388
  N      -83.119      27.762     -99.298
  C      -83.023      26.614     -99.940
  N      -81.772      26.069     -99.828
  O      -85.150      20.934    -103.264
  O      -84.687      18.666    -102.173
  H      -80.454      24.731     -97.756
  H      -85.160      20.307    -104.012
  H      -78.297      27.783     -97.606
  H      -83.833      26.115    -100.457
  H      -80.330      24.729    -100.476
  H      -82.545      23.986     -98.472
  H      -82.439      21.764     -99.160
  H      -81.503      22.350    -101.849
  H      -84.324      22.840    -100.818
  H      -81.698      30.578     -96.690
  H      -83.105      29.990     -97.585
  H      -83.839      22.478    -102.492
  P      -80.379      20.270     -99.203
  C      -80.623      20.664     -96.647
  O      -81.221      20.166     -97.838
  O      -78.857      20.106     -98.736
  O      -80.738      19.271    -100.251
  H      -78.441      19.362     -99.212
  H      -81.296      20.528     -95.826
  H      -80.409      21.706     -96.764
  H      -79.714      20.133     -96.455

 6  7  8  9  10  11  12  13  14  15  25  28  32  33  34  35 0
 6-311+G(2d,p)
 ****
 36  39  40 0
 6-311+G(2d,p)
 ****
 1  2  3  4  5  16  17  18  19  20  21  22  23  24 0
 3-21G
 ****
 26  27  29  30  31  37  38  41  42  43  44  45  46  47  48 0
 3-21G
 ****


