%nproc=1
%NoSave
%Mem=1900MB
#P OB98/GEN NMR

erre ene a

0 1
  C     -514.515    -815.087     333.648
  O     -514.322    -814.961     335.053
  P     -514.048    -813.487     335.637
  C     -511.742    -814.309     336.518
  O     -512.451    -813.350     335.730
  C     -510.240    -814.011     336.502
  O     -509.691    -814.326     335.195
  C     -509.883    -812.563     336.742
  O     -509.854    -812.248     338.140
  C     -508.468    -812.514     336.171
  O     -507.544    -813.075     337.113
  C     -508.584    -813.411     334.951
  N     -506.914    -812.553     330.184
  C     -506.397    -813.298     331.200
  N     -506.914    -813.462     332.447
  C     -508.036    -812.740     332.609
  C     -508.650    -811.916     331.687
  C     -508.051    -811.844     330.406
  N     -508.589    -811.115     329.360
  N     -509.782    -811.348     332.194
  C     -509.858    -811.825     333.445
  N     -508.831    -812.682     333.726
  O     -514.496    -813.618     337.173
  O     -514.764    -812.379     334.930
  H     -506.639    -812.948     336.739
  H     -514.731    -812.753     337.522
  H     -505.486    -813.822     330.988
  H     -510.644    -811.576     334.144
  H     -507.679    -814.025     334.801
  H     -508.124    -811.489     335.962
  H     -510.522    -811.875     336.180
  H     -509.740    -814.673     337.234
  H     -511.915    -815.309     336.107
  H     -508.201    -811.266     328.449
  H     -509.531    -810.758     329.465
  H     -512.116    -814.273     337.547
  P     -509.688    -810.705     338.523
  C     -507.606    -811.071     340.028
  O     -508.138    -810.501     338.835
  O     -510.384    -810.613     339.963
  O     -510.294    -809.740     337.542
  H     -510.710    -809.704     340.136
  H     -506.503    -811.128     339.931
  H     -507.988    -812.084     340.190
  H     -507.847    -810.440     340.887
  H     -514.686    -816.114     333.402
  H     -513.643    -814.738     333.135
  H     -515.361    -814.504     333.350

 3  4  5  6  7  8  9  10  11  12  22  25  29  30  31  32 0
 6-311+G(2d,p)
 ****
 33  36  37 0
 6-311+G(2d,p)
 ****
 1  2  13  14  15  16  17  18  19  20  21  23  24  26 0
 3-21G
 ****
 27  28  34  35  38  39  40  41  42  43  44  45  46  47  48 0
 3-21G
 ****


