%nproc=1
%NoSave
%Mem=1900MB
#P OB98/GEN NMR

erre ene a

0 1
  C     -271.319     -44.547     412.563
  O     -270.736     -45.090     413.734
  H     -270.829     -43.596     412.335
  H     -272.387     -44.358     412.711
  H     -271.178     -45.227     411.719
  P     -271.391     -46.411     414.363
  C     -269.243     -47.856     414.381
  O     -270.523     -47.631     413.795
  C     -268.146     -47.603     413.351
  O     -268.114     -46.210     412.983
  C     -266.752     -47.929     413.870
  O     -266.534     -49.323     413.894
  C     -265.894     -47.146     412.892
  O     -265.740     -47.852     411.655
  C     -266.740     -45.866     412.697
  N     -266.289     -44.758     413.536
  C     -265.304     -43.932     412.983
  O     -264.866     -44.151     411.856
  N     -264.825     -42.893     413.744
  C     -265.295     -42.686     414.932
  N     -264.778     -41.641     415.630
  C     -266.344     -43.525     415.545
  C     -266.787     -44.538     414.799
  O     -272.871     -46.576     414.196
  O     -270.962     -46.346     415.905
  H     -265.024     -47.392     411.174
  H     -271.631     -45.862     416.424
  H     -266.711     -43.312     416.537
  H     -267.560     -45.201     415.173
  H     -266.704     -45.541     411.648
  H     -264.900     -46.961     413.293
  H     -266.611     -47.496     414.866
  H     -268.378     -48.185     412.449
  H     -264.052     -41.099     415.175
  H     -269.219     -48.899     414.715
  H     -265.125     -41.331     416.525
  H     -269.101     -47.209     415.254
  P     -266.268     -50.085     415.282
  C     -267.537     -52.095     414.280
  O     -267.419     -51.200     415.385
  O     -266.124     -49.202     416.475
  O     -264.958     -50.954     414.970
  H     -264.148     -50.387     414.940
  H     -268.333     -52.786     414.464
  H     -266.620     -52.632     414.156
  H     -267.747     -51.538     413.391

 6  7  8  9  10  11  12  13  14  15  16  26  30  31  32  33  35 0
 6-311+G(2d,p)
 ****
 37  38 0
 6-311+G(2d,p)
 ****
 1  2  3  4  5  17  18  19  20  21  22  23  24  25 0
 3-21G
 ****
 27  28  29  34  36  39  40  41  42  43  44  45  46 0
 3-21G
 ****


