%nproc=1
%NoSave
%Mem=1900MB
#P OB98/GEN NMR

erre ene a

0 1
  C       93.236     -91.043      -8.652
  O       92.999     -91.868      -9.777
  H       92.466     -90.267      -8.621
  H       94.216     -90.564      -8.719
  H       93.173     -91.635      -7.734
  P       94.143     -92.912     -10.204
  C       95.204     -91.180     -11.797
  O       95.396     -92.008     -10.651
  C       96.093     -89.938     -11.737
  O       95.608     -89.008     -10.747
  C       97.532     -90.222     -11.334
  O       98.270     -90.971     -12.272
  C       98.022     -88.839     -10.932
  O       98.430     -88.058     -12.057
  C       96.744     -88.233     -10.302
  N       96.820     -88.176      -8.845
  C       96.987     -86.911      -8.295
  O       97.094     -85.883      -8.966
  N       97.066     -86.862      -6.929
  C       97.038     -87.933      -6.085
  O       97.134     -87.823      -4.868
  C       96.899     -89.250      -6.728
  C       96.795     -89.310      -8.059
  O       93.739     -93.936     -11.222
  O       94.627     -93.540      -8.814
  H       99.326     -88.357     -12.300
  H       95.152     -94.366      -8.959
  H       97.172     -85.951      -6.507
  H       96.887     -90.124      -6.092
  H       96.688     -90.272      -8.557
  H       96.586     -87.211     -10.672
  H       98.871     -88.887     -10.246
  H       97.519     -90.825     -10.415
  H       96.045     -89.440     -12.712
  H       94.152     -90.870     -11.811
  H       95.417     -91.756     -12.703
  P       99.385     -92.040     -11.870
  C      101.374     -90.357     -12.109
  O      100.653     -91.258     -11.275
  O       99.636     -93.144     -12.847
  O       98.745     -92.699     -10.543
  H       99.013     -93.642     -10.531
  H      102.182     -89.927     -11.555
  H      100.719     -89.581     -12.445
  H      101.763     -90.886     -12.954

 6  7  8  9  10  11  12  13  14  15  16  26  31  32  33  34  35 0
 6-311+G(2d,p)
 ****
 36  37 0
 6-311+G(2d,p)
 ****
 1  2  3  4  5  17  18  19  20  21  22  23  24  25 0
 3-21G
 ****
 27  28  29  30  38  39  40  41  42  43  44  45 0
 3-21G
 ****


