%nproc=1
%NoSave
%Mem=1900MB
#P OB98/GEN NMR

erre ene a

0 1
  C      359.621     138.108     -89.641
  O      360.918     137.535     -89.429
  P      362.166     138.381     -88.886
  C      363.768     137.603     -90.753
  O      363.528     137.675     -89.350
  C      364.706     136.446     -91.106
  O      364.033     135.182     -90.946
  C      365.218     136.452     -92.541
  O      366.235     137.423     -92.717
  C      365.682     135.007     -92.694
  O      366.994     134.823     -92.140
  C      364.626     134.245     -91.867
  N      363.618     133.604     -92.702
  C      363.982     132.396     -93.303
  O      365.123     131.949     -93.167
  N      363.052     131.738     -94.067
  C      361.889     132.272     -94.272
  N      361.005     131.569     -95.031
  C      361.497     133.587     -93.731
  C      362.403     134.189     -92.961
  O      362.105     138.683     -87.422
  O      362.145     139.741     -89.734
  H      366.963     135.179     -91.231
  H      362.506     140.463     -89.185
  H      360.530     134.011     -93.950
  H      362.192     135.152     -92.515
  H      365.108     133.478     -91.249
  H      365.727     134.689     -93.740
  H      364.387     136.642     -93.230
  H      365.546     136.468     -90.400
  H      361.300     130.667     -95.381
  H      364.223     138.548     -91.070
  H      360.074     131.894     -95.250
  H      362.808     137.486     -91.268
  P      366.383     138.173     -94.123
  C      368.503     136.879     -94.773
  O      367.933     138.151     -94.522
  O      365.721     139.507     -94.218
  O      365.741     137.141     -95.170
  H      365.334     137.646     -95.901
  H      369.388     137.010     -95.400
  H      367.796     136.224     -95.287
  H      368.802     136.423     -93.824
  H      358.953     137.355     -90.004
  H      359.693     138.898     -90.360
  H      359.249     138.499     -88.717

 3  4  5  6  7  8  9  10  11  12  13  23  27  28  29  30  32 0
 6-311+G(2d,p)
 ****
 34  35 0
 6-311+G(2d,p)
 ****
 1  2  14  15  16  17  18  19  20  21  22  24  25  26 0
 3-21G
 ****
 31  33  36  37  38  39  40  41  42  43  44  45  46 0
 3-21G
 ****


