%nproc=1
%NoSave
%Mem=1900MB
#P OB98/GEN NMR

erre ene a

0 1
  C      -11.333    -293.973     184.008
  O      -11.547    -293.626     185.377
  P      -10.353    -293.783     186.428
  C       -8.216    -292.510     187.143
  O       -9.362    -292.531     186.298
  C       -7.335    -291.304     186.803
  O       -6.903    -291.334     185.421
  C       -8.067    -289.974     186.950
  O       -8.395    -289.567     188.262
  C       -7.201    -289.037     186.123
  O       -6.085    -288.560     186.868
  C       -6.737    -289.970     184.982
  N       -7.451    -289.724     183.727
  C       -6.896    -288.766     182.883
  O       -5.892    -288.116     183.169
  N       -7.560    -288.553     181.705
  C       -8.716    -289.163     181.315
  O       -9.284    -288.914     180.258
  C       -9.269    -290.147     182.257
  C       -8.621    -290.381     183.402
  O       -9.690    -295.117     186.460
  O      -11.080    -293.494     187.834
  H       -5.459    -289.303     186.965
  H      -10.728    -294.128     188.488
  H       -7.168    -287.866     181.080
  H      -10.187    -290.649     181.982
  H       -9.011    -291.105     184.109
  H       -5.664    -289.831     184.787
  H       -7.764    -288.157     185.792
  H       -9.029    -290.062     186.421
  H       -6.444    -291.339     187.428
  H       -7.652    -293.436     187.025
  H       -8.545    -292.480     188.187
  P       -9.744    -290.004     189.009
  C      -10.297    -292.076     190.463
  O       -9.372    -291.057     190.159
  O      -10.929    -290.313     188.156
  O      -10.068    -288.683     189.869
  H      -11.038    -288.591     189.938
  H       -9.887    -292.685     191.276
  H      -10.464    -292.717     189.595
  H      -11.247    -291.645     190.797
  H      -12.232    -293.806     183.453
  H      -11.058    -295.005     183.940
  H      -10.548    -293.368     183.605

 3  4  5  6  7  8  9  10  11  12  13  23  28  29  30  31  32 0
 6-311+G(2d,p)
 ****
 33  34 0
 6-311+G(2d,p)
 ****
 1  2  14  15  16  17  18  19  20  21  22  24  25  26  27 0
 3-21G
 ****
 35  36  37  38  39  40  41  42  43  44  45 0
 3-21G
 ****


