%nproc=1
%NoSave
%Mem=1900MB
#P OB98/GEN NMR

erre ene a

0 1
  C      -26.472      46.188     228.354
  O      -27.328      47.108     228.992
  H      -26.741      46.140     227.295
  H      -26.594      45.190     228.783
  H      -25.430      46.507     228.437
  P      -27.187      47.347     230.573
  C      -27.363      49.455     232.028
  O      -27.798      48.814     230.836
  C      -28.128      50.758     232.262
  O      -27.561      51.809     231.433
  C      -29.626      50.664     231.929
  O      -30.392      51.242     232.987
  C      -29.766      51.513     230.676
  O      -31.084      52.023     230.492
  C      -28.672      52.559     230.911
  N      -28.333      53.281     229.693
  C      -29.134      54.386     229.386
  O      -30.061      54.706     230.132
  N      -28.902      55.067     228.221
  C      -27.983      54.655     227.405
  N      -27.824      55.357     226.253
  C      -27.132      53.476     227.676
  C      -27.356      52.845     228.828
  O      -25.815      47.128     231.116
  O      -28.284      46.386     231.234
  H      -31.722      51.285     230.607
  H      -28.032      46.208     232.169
  H      -26.382      53.169     226.961
  H      -26.783      51.969     229.112
  H      -28.982      53.286     231.674
  H      -29.516      50.904     229.797
  H      -29.964      49.643     231.762
  H      -27.972      51.070     233.303
  H      -28.433      56.154     226.105
  H      -26.288      49.651     231.947
  H      -27.159      55.117     225.534
  H      -27.544      48.778     232.870
  P      -31.215      50.215     233.910
  C      -32.760      50.375     235.988
  O      -32.071      51.072     234.962
  O      -30.075      49.533     234.804
  O      -31.983      49.202     233.132
  H      -29.958      48.602     234.536
  H      -33.282      51.075     236.606
  H      -32.057      49.829     236.582
  H      -33.460      49.695     235.549

 6  7  8  9  10  11  12  13  14  15  16  26  30  31  32  33  35 0
 6-311+G(2d,p)
 ****
 37  38 0
 6-311+G(2d,p)
 ****
 1  2  3  4  5  17  18  19  20  21  22  23  24  25 0
 3-21G
 ****
 27  28  29  34  36  39  40  41  42  43  44  45  46 0
 3-21G
 ****


