%nproc=1
%NoSave
%Mem=1900MB
#P OB98/GEN NMR

erre ene a

0 1
  C      446.155     184.709    -229.139
  O      447.276     184.160    -228.473
  H      446.418     184.871    -230.188
  H      445.875     185.667    -228.690
  H      445.308     184.013    -229.097
  P      447.178     183.879    -226.898
  C      448.340     181.941    -225.642
  O      448.514     183.082    -226.482
  C      449.528     180.982    -225.803
  O      449.426     180.369    -227.110
  C      450.885     181.707    -225.718
  O      451.773     181.122    -224.761
  C      451.349     181.761    -227.169
  O      452.749     181.829    -227.341
  C      450.688     180.520    -227.788
  N      450.491     180.616    -229.235
  C      451.615     180.439    -230.046
  O      452.750     180.183    -229.641
  N      451.393     180.552    -231.394
  C      450.198     180.827    -231.993
  O      450.059     180.914    -233.213
  C      449.055     181.025    -231.088
  C      449.251     180.916    -229.767
  O      445.903     183.260    -226.427
  O      447.408     185.323    -226.236
  H      453.049     182.703    -227.007
  H      446.549     185.689    -225.946
  H      452.191     180.416    -231.995
  H      448.095     181.257    -231.531
  H      448.432     181.053    -229.070
  H      451.286     179.631    -227.591
  H      450.922     182.659    -227.628
  H      450.760     182.731    -225.345
  H      449.446     180.189    -225.054
  H      447.406     181.447    -225.929
  H      448.265     182.265    -224.596
  P      452.449     181.909    -223.544
  C      453.561     181.054    -221.322
  O      453.348     180.866    -222.715
  O      451.540     182.790    -222.761
  O      453.544     182.843    -224.276
  H      453.608     183.665    -223.739
  H      454.179     180.266    -220.946
  H      452.620     181.043    -220.813
  H      454.044     181.995    -221.159

 6  7  8  9  10  11  12  13  14  15  16  26  31  32  33  34  35 0
 6-311+G(2d,p)
 ****
 36  37 0
 6-311+G(2d,p)
 ****
 1  2  3  4  5  17  18  19  20  21  22  23  24  25 0
 3-21G
 ****
 27  28  29  30  38  39  40  41  42  43  44  45 0
 3-21G
 ****


