%nproc=1
%NoSave
%Mem=1900MB
#P OB98/GEN NMR

erre ene a

0 1
  C      461.309     157.767      -6.204
  O      462.514     157.197      -5.690
  P      462.396     155.991      -4.637
  C      462.158     157.408      -2.400
  O      462.886     156.487      -3.195
  C      462.554     157.235      -0.930
  O      462.176     155.918      -0.466
  C      464.052     157.385      -0.680
  O      464.426     158.729      -0.492
  C      464.254     156.514       0.542
  O      463.818     157.206       1.725
  C      463.311     155.322       0.224
  N      463.834     154.211      -0.592
  C      463.708     152.894      -0.147
  O      463.180     152.580       0.923
  N      464.215     151.928      -0.972
  C      464.659     152.110      -2.254
  O      465.042     151.190      -2.976
  C      464.632     153.491      -2.740
  C      464.246     154.468      -1.894
  O      463.551     154.980      -5.098
  O      461.060     155.332      -4.592
  H      463.840     156.560       2.460
  H      463.152     154.138      -5.396
  H      464.187     150.975      -0.632
  H      464.947     153.669      -3.753
  H      464.227     155.486      -2.245
  H      462.938     154.881       1.155
  H      465.315     156.280       0.695
  H      464.619     156.939      -1.514
  H      462.009     157.978      -0.339
  H      461.083     157.257      -2.524
  H      462.380     158.426      -2.742
  P      464.673     159.685      -1.757
  C      466.994     160.078      -0.727
  O      465.863     160.682      -1.323
  O      463.463     160.340      -2.323
  O      465.397     158.725      -2.809
  H      464.741     158.346      -3.453
  H      467.782     160.826      -0.626
  H      467.355     159.259      -1.352
  H      466.742     159.709       0.275
  H      461.550     158.553      -6.888
  H      460.729     158.162      -5.397
  H      460.746     157.012      -6.712

 3  4  5  6  7  8  9  10  11  12  13  23  28  29  30  31  32 0
 6-311+G(2d,p)
 ****
 33  34 0
 6-311+G(2d,p)
 ****
 1  2  14  15  16  17  18  19  20  21  22  24  25  26  27 0
 3-21G
 ****
 35  36  37  38  39  40  41  42  43  44  45 0
 3-21G
 ****


