%nproc=1
%NoSave
%Mem=1900MB
#P OB98/GEN NMR

erre ene a

0 1
  C     -228.287     114.159     -17.718
  O     -228.610     114.485     -19.054
  H     -229.069     113.512     -17.316
  H     -228.239     115.069     -17.116
  H     -227.332     113.630     -17.673
  P     -227.538     115.361     -19.866
  C     -226.592     113.070     -20.629
  O     -226.300     114.385     -20.179
  C     -225.390     112.468     -21.354
  O     -224.965     113.385     -22.405
  C     -224.173     112.209     -20.452
  O     -223.519     111.023     -20.921
  C     -223.272     113.396     -20.751
  O     -221.907     113.143     -20.425
  C     -223.546     113.574     -22.243
  N     -219.639     116.101     -24.154
  C     -219.767     114.767     -23.818
  N     -218.687     113.983     -24.021
  N     -220.859     114.247     -23.325
  C     -221.871     115.140     -23.206
  C     -221.871     116.483     -23.497
  C     -220.646     117.052     -24.018
  O     -220.466     118.229     -24.316
  N     -223.088     117.050     -23.210
  C     -223.819     116.052     -22.748
  N     -223.124     114.874     -22.726
  O     -226.968     116.346     -18.742
  O     -228.078     116.104     -21.041
  H     -221.427     113.996     -20.457
  H     -227.462     117.187     -18.748
  H     -218.771     116.453     -24.518
  H     -224.845     116.128     -22.415
  H     -223.029     112.825     -22.855
  H     -223.603     114.274     -20.183
  H     -217.829     114.303     -24.440
  H     -224.412     112.106     -19.389
  H     -218.775     112.993     -23.821
  H     -225.710     111.545     -21.852
  H     -227.443     113.111     -21.318
  H     -226.861     112.447     -19.770
  P     -224.002     109.615     -20.331
  C     -223.521     108.186     -22.450
  O     -224.493     108.705     -21.556
  O     -225.376     109.988     -19.597
  O     -223.033     108.975     -19.394
  H     -225.540     109.367     -18.864
  H     -224.006     107.605     -23.206
  H     -222.834     107.568     -21.910
  H     -222.990     108.994     -22.908

 6  7  8  9  10  11  12  13  14  15  26  29  33  34 0
 6-311+G(2d,p)
 ****
 36  38  39  40  41 0
 6-311+G(2d,p)
 ****
 1  2  3  4  5  16  17  18  19  20  21  22  23  24  25 0
 3-21G
 ****
 27  28  30  31  32  35  37  42  43  44  45  46  47 0
 3-21G
 ****
 48  49 0
 3-21G
 ****


