%nproc=1
%NoSave
%Mem=1900MB
#P OB98/GEN NMR

erre ene a

0 1
  C     -352.060    -319.114     253.991
  O     -352.870    -319.556     255.058
  H     -351.387    -319.924     253.700
  H     -351.458    -318.259     254.308
  H     -352.674    -318.839     253.128
  P     -354.048    -318.581     255.546
  C     -353.654    -318.696     258.111
  O     -354.472    -319.076     257.015
  C     -353.507    -319.860     259.093
  O     -352.700    -320.897     258.473
  C     -352.834    -319.468     260.412
  O     -353.471    -320.183     261.476
  C     -351.408    -319.964     260.251
  O     -350.772    -320.223     261.502
  C     -351.609    -321.198     259.362
  N     -350.389    -321.531     258.630
  C     -349.558    -322.496     259.205
  O     -349.858    -323.012     260.283
  N     -348.376    -322.810     258.582
  C     -348.018    -322.158     257.520
  N     -346.821    -322.494     256.964
  C     -348.833    -321.081     256.917
  C     -349.996    -320.831     257.513
  O     -355.290    -319.018     254.640
  O     -353.752    -317.122     255.445
  H     -349.870    -320.570     261.323
  H     -355.878    -318.260     254.456
  H     -348.479    -320.550     256.049
  H     -350.659    -320.058     257.145
  H     -351.903    -322.065     259.966
  H     -350.816    -319.207     259.723
  H     -352.879    -318.395     260.618
  H     -354.499    -320.290     259.272
  H     -346.285    -323.219     257.421
  H     -354.118    -317.852     258.628
  H     -346.420    -322.018     256.166
  H     -352.672    -318.384     257.740
  P     -354.603    -319.396     262.295
  C     -353.919    -319.808     264.770
  O     -354.805    -320.134     263.705
  O     -355.944    -319.735     261.492
  O     -354.366    -317.922     262.382
  H     -356.251    -318.944     261.009
  H     -354.179    -320.378     265.638
  H     -353.997    -318.764     264.992
  H     -352.915    -320.037     264.481

 6  7  8  9  10  11  12  13  14  15  16  26  30  31  32  33  35 0
 6-311+G(2d,p)
 ****
 37  38 0
 6-311+G(2d,p)
 ****
 1  2  3  4  5  17  18  19  20  21  22  23  24  25 0
 3-21G
 ****
 27  28  29  34  36  39  40  41  42  43  44  45  46 0
 3-21G
 ****


