%nproc=1
%NoSave
%Mem=1900MB
#P OB98/GEN NMR

erre ene a

0 1
  C       32.544    -191.307     103.680
  O       31.672    -191.736     104.708
  H       32.616    -190.216     103.712
  H       32.145    -191.605     102.706
  H       33.541    -191.733     103.820
  P       31.612    -193.313     104.980
  C       30.106    -193.824     102.894
  O       31.341    -194.031     103.565
  C       29.979    -194.791     101.720
  O       28.690    -194.662     101.087
  C       30.961    -194.530     100.588
  O       32.281    -194.908     100.916
  C       30.346    -195.373      99.482
  O       30.754    -196.744      99.570
  C       28.830    -195.234      99.765
  N       28.161    -194.445      98.746
  C       26.938    -194.961      98.297
  O       26.493    -196.004      98.778
  N       26.278    -194.303      97.292
  C       26.803    -193.241      96.762
  N       26.111    -192.655      95.747
  C       28.089    -192.667      97.205
  C       28.711    -193.314      98.192
  O       30.218    -193.479     105.746
  O       32.785    -193.865     105.717
  H       31.710    -196.761      99.352
  H       29.476    -193.034     105.309
  H       28.477    -191.772      96.741
  H       29.660    -192.961      98.579
  H       28.353    -196.224      99.800
  H       30.641    -195.018      98.491
  H       30.912    -193.476     100.281
  H       30.078    -195.813     102.106
  H       25.263    -193.115      95.438
  H       30.026    -192.789     102.546
  H       26.459    -191.875      95.210
  H       29.303    -193.994     103.617
  P       33.543    -194.129     100.314
  C       34.123    -195.965      98.602
  O       33.705    -194.617      98.790
  O       34.793    -194.219     101.121
  O       32.992    -192.636     100.127
  H       32.224    -192.553      99.534
  H       34.195    -196.173      97.555
  H       33.409    -196.625      99.049
  H       35.079    -196.109      99.061

 6  7  8  9  10  11  12  13  14  15  16  26  30  31  32  33  35 0
 6-311+G(2d,p)
 ****
 37  38 0
 6-311+G(2d,p)
 ****
 1  2  3  4  5  17  18  19  20  21  22  23  24  25 0
 3-21G
 ****
 27  28  29  34  36  39  40  41  42  43  44  45  46 0
 3-21G
 ****


