%nproc=1
%NoSave
%Mem=1900MB
#P OB98/GEN NMR

erre ene a

0 1
  C      -25.323     -39.354      59.032
  O      -26.186     -38.658      58.150
  P      -27.492     -39.445      57.637
  C      -27.913     -41.298      55.846
  O      -27.012     -40.362      56.416
  C      -27.531     -41.558      54.388
  O      -27.794     -40.391      53.584
  C      -26.062     -41.897      54.178
  O      -25.822     -43.264      54.459
  C      -25.872     -41.527      52.711
  O      -26.346     -42.579      51.850
  C      -26.748     -40.272      52.583
  N      -23.253     -37.200      50.609
  C      -23.621     -38.480      50.240
  N      -22.996     -38.996      49.160
  N      -24.521     -39.187      50.870
  C      -25.053     -38.548      51.938
  C      -24.761     -37.290      52.411
  C      -23.802     -36.500      51.675
  O      -23.514     -35.328      51.901
  N      -25.489     -36.994      53.534
  C      -26.242     -38.060      53.719
  N      -26.031     -39.023      52.766
  O      -28.359     -38.295      56.947
  O      -28.249     -40.179      58.699
  H      -27.174     -42.941      52.213
  H      -29.055     -37.975      57.553
  H      -22.567     -36.697      50.075
  H      -26.966     -38.173      54.510
  H      -27.242     -40.214      51.606
  H      -24.819     -41.367      52.460
  H      -22.276     -38.520      48.641
  H      -25.428     -41.257      54.804
  H      -23.250     -39.936      48.877
  H      -28.169     -42.370      54.015
  H      -28.927     -40.890      55.886
  H      -27.882     -42.226      56.426
  P      -24.612     -43.614      55.452
  C      -22.061     -43.139      55.408
  O      -23.251     -43.316      54.665
  O      -24.663     -45.212      55.543
  O      -24.720     -42.990      56.803
  H      -24.421     -45.497      56.444
  H      -21.215     -43.467      54.800
  H      -22.074     -43.713      56.339
  H      -21.939     -42.078      55.641
  H      -24.499     -38.724      59.296
  H      -24.957     -40.237      58.550
  H      -25.861     -39.627      59.916

 3  4  5  6  7  8  9  10  11  12  23  26  30  31 0
 6-311+G(2d,p)
 ****
 33  35  36  37  38 0
 6-311+G(2d,p)
 ****
 1  2  13  14  15  16  17  18  19  20  21  22  24  25 0
 3-21G
 ****
 27  28  29  32  34  39  40  41  42  43  44  45  46  47  48  49 0
 3-21G
 ****


