%nproc=1
%NoSave
%Mem=1900MB
#P OB98/GEN NMR

erre ene a

0 1
  C      -61.325    -147.495    -563.581
  O      -62.078    -146.274    -563.513
  P      -62.741    -145.767    -564.888
  C      -60.870    -144.051    -565.444
  O      -61.565    -145.233    -565.842
  C      -60.951    -142.953    -566.515
  O      -60.332    -143.431    -567.736
  C      -62.374    -142.512    -566.867
  O      -62.367    -141.098    -567.120
  C      -62.632    -143.202    -568.197
  O      -63.646    -142.552    -568.959
  C      -61.233    -143.149    -568.817
  N      -62.194    -144.166    -573.682
  C      -62.447    -143.016    -572.951
  N      -63.054    -142.009    -573.612
  N      -62.121    -142.875    -571.690
  C      -61.486    -143.951    -571.172
  C      -61.174    -145.143    -571.799
  C      -61.576    -145.301    -573.179
  O      -61.428    -146.320    -573.867
  N      -60.526    -145.999    -570.938
  C      -60.455    -145.334    -569.803
  N      -61.033    -144.088    -569.892
  O      -63.526    -144.445    -564.446
  O      -63.661    -146.770    -565.513
  H      -63.393    -141.611    -569.034
  H      -64.469    -144.520    -564.690
  H      -62.485    -144.231    -574.645
  H      -60.023    -145.712    -568.884
  H      -61.003    -142.142    -569.199
  H      -62.954    -144.238    -568.016
  H      -63.268    -142.027    -574.594
  H      -63.128    -142.751    -566.119
  H      -63.207    -141.138    -573.107
  H      -60.365    -142.095    -566.165
  H      -59.819    -144.294    -565.258
  H      -61.303    -143.696    -564.502
  P      -62.925    -140.159    -565.938
  C      -65.335    -140.273    -566.926
  O      -64.486    -140.506    -565.811
  O      -62.904    -138.696    -566.594
  O      -62.126    -140.229    -564.674
  H      -62.809    -138.017    -565.895
  H      -64.766    -140.058    -567.841
  H      -65.979    -139.419    -566.704
  H      -65.950    -141.163    -567.087
  H      -60.936    -147.728    -562.612
  H      -60.516    -147.377    -564.271
  H      -61.962    -148.289    -563.910

 3  4  5  6  7  8  9  10  11  12  23  26  30  31  33  0
 6-311+G(2d,p)
 ****
 35  36  37  38 0
 6-311+G(2d,p)
 ****
 1  2  13  14  15  16  17  18  19  20  21  22  24  25  27  28  29 0
 3-21G
 ****
 32  34  39  40  41  42  43  44  45  46  47  48  49 0
 3-21G
 ****


