%nproc=1
%NoSave
%Mem=1900MB
#P OB98/GEN NMR

erre ene a

0 1
  C     -152.214      24.079     -57.186
  O     -151.642      25.240     -57.747
  P     -151.908      25.646     -59.272
  C     -153.589      27.470     -58.571
  O     -153.385      26.283     -59.329
  C     -154.027      28.619     -59.491
  O     -155.315      28.273     -60.089
  C     -154.199      29.956     -58.738
  O     -153.483      31.053     -59.312
  C     -155.708      30.118     -58.680
  O     -156.137      31.450     -58.469
  C     -156.142      29.449     -59.990
  N     -157.569      29.132     -60.012
  C     -158.458      30.199     -59.944
  O     -158.124      31.378     -59.876
  N     -159.785      29.872     -59.888
  C     -160.296      28.612     -59.781
  O     -161.492      28.396     -59.636
  C     -159.304      27.525     -59.818
  C     -158.009      27.823     -59.956
  O     -151.666      24.568     -60.272
  O     -150.983      26.939     -59.470
  H     -157.097      31.432     -58.297
  H     -151.186      27.682     -58.876
  H     -160.442      30.636     -59.838
  H     -159.679      26.514     -59.724
  H     -157.255      27.042     -59.984
  H     -155.917      30.080     -60.853
  H     -156.074      29.525     -57.830
  H     -153.801      29.886     -57.719
  H     -153.284      28.708     -60.290
  H     -152.650      27.742     -58.083
  H     -154.330      27.287     -57.784
  P     -152.970      32.336     -58.508
  C     -150.518      31.502     -58.727
  O     -151.536      31.996     -57.884
  O     -153.955      32.923     -57.549
  O     -152.622      33.387     -59.667
  H     -152.744      34.296     -59.332
  H     -149.845      30.873     -58.137
  H     -149.944      32.343     -59.133
  H     -150.926      30.909     -59.550
  H     -151.913      23.992     -56.163
  H     -151.882      23.219     -57.730
  H     -153.281      24.145     -57.240

 3  4  5  6  7  8  9  10  11  12  13  23  28  29  30  31  32 0
 6-311+G(2d,p)
 ****
 33  34 0
 6-311+G(2d,p)
 ****
 1  2  14  15  16  17  18  19  20  21  22  24  25  26  27 0
 3-21G
 ****
 35  36  37  38  39  40  41  42  43  44  45 0
 3-21G
 ****


