%nproc=1
%NoSave
%Mem=1900MB
#P OB98/GEN NMR

erre ene a

0 1
  C     -339.439    -330.598    -246.752
  O     -338.569    -329.705    -247.416
  H     -339.440    -330.363    -245.685
  H     -339.078    -331.622    -246.883
  H     -340.459    -330.510    -247.135
  P     -338.703    -329.597    -249.010
  C     -336.334    -329.045    -249.916
  O     -337.594    -328.541    -249.495
  C     -335.437    -327.903    -250.394
  O     -336.094    -327.230    -251.510
  C     -335.142    -326.845    -249.317
  O     -333.797    -326.379    -249.485
  C     -336.083    -325.714    -249.692
  O     -335.645    -324.455    -249.195
  C     -336.064    -325.823    -251.214
  N     -337.606    -321.268    -252.649
  C     -336.358    -321.712    -252.261
  N     -335.375    -320.790    -252.182
  N     -336.095    -322.958    -251.969
  C     -337.163    -323.779    -252.106
  C     -338.447    -323.467    -252.475
  C     -338.731    -322.079    -252.782
  O     -339.821    -321.621    -253.110
  N     -339.255    -324.574    -252.436
  C     -338.463    -325.551    -252.022
  N     -337.186    -325.116    -251.806
  O     -340.083    -328.804    -249.192
  O     -338.709    -330.898    -249.741
  H     -334.844    -324.192    -249.691
  H     -340.814    -329.437    -249.324
  H     -337.761    -320.294    -252.847
  H     -338.768    -326.571    -251.842
  H     -335.152    -325.398    -251.654
  H     -337.085    -325.914    -249.295
  H     -335.495    -319.818    -252.422
  H     -335.287    -327.200    -248.293
  H     -334.446    -321.108    -251.938
  H     -334.503    -328.329    -250.780
  H     -336.487    -329.748    -250.741
  H     -335.863    -329.579    -249.085
  P     -332.609    -327.294    -248.917
  C     -331.396    -325.157    -248.051
  O     -331.295    -326.386    -248.756
  O     -332.252    -328.235    -250.161
  O     -332.982    -328.094    -247.713
  H     -331.985    -329.117    -249.842
  H     -330.440    -324.676    -248.033
  H     -331.719    -325.346    -247.049
  H     -332.105    -324.522    -248.540

 6  7  8  9  10  11  12  13  14  15  26  29  33  34 0
 6-311+G(2d,p)
 ****
 36  38  39  40  41 0
 6-311+G(2d,p)
 ****
 1  2  3  4  5  16  17  18  19  20  21  22  23  24  25 0
 3-21G
 ****
 27  28  30  31  32  35  37  42  43  44  45  46  47 0
 3-21G
 ****
 48  49 0
 3-21G
 ****


