%nproc=1
%NoSave
%Mem=1900MB
#P OB98/GEN NMR

erre ene a

0 1
  C      -27.296     -13.247      73.858
  O      -27.172     -14.199      74.894
  H      -26.610     -13.515      73.049
  H      -27.031     -12.252      74.227
  H      -28.317     -13.239      73.466
  P      -28.132     -14.009      76.166
  C      -26.518     -12.354      77.358
  O      -27.796     -12.560      76.769
  C      -26.298     -10.865      77.609
  O      -26.179     -10.177      76.343
  C      -27.444     -10.178      78.343
  O      -27.400     -10.419      79.738
  C      -27.202      -8.721      77.970
  O      -26.220      -8.116      78.820
  C      -26.661      -8.829      76.539
  N      -27.708      -5.915      72.491
  C      -26.589      -6.060      73.235
  N      -26.385      -6.876      74.291
  C      -27.489      -7.597      74.548
  C      -28.702      -7.553      73.882
  C      -28.792      -6.662      72.801
  N      -29.942      -6.488      72.066
  N      -29.610      -8.410      74.471
  C      -28.954      -8.970      75.469
  N      -27.669      -8.512      75.548
  O      -27.506     -15.020      77.239
  O      -29.578     -14.278      75.919
  H      -26.046      -7.226      78.456
  H      -27.981     -15.872      77.200
  H      -25.748      -5.434      72.946
  H      -29.365      -9.698      76.158
  H      -25.813      -8.155      76.365
  H      -28.116      -8.132      78.059
  H      -28.407     -10.496      77.924
  H      -25.354     -10.739      78.155
  H      -25.742     -12.724      76.678
  H      -26.466     -12.916      78.297
  H      -29.941      -5.813      71.318
  H      -30.786      -6.962      72.357
  P      -28.743     -10.884      80.476
  C      -29.309      -8.506      81.363
  O      -29.714      -9.611      80.569
  O      -28.270     -11.113      81.988
  O      -29.380     -12.104      79.899
  H      -28.130     -12.062      82.160
  H      -30.059      -7.744      81.322
  H      -28.385      -8.118      80.989
  H      -29.178      -8.824      82.376

 6  7  8  9  10  11  12  13  14  15  25  28  32  33  34  35 0
 6-311+G(2d,p)
 ****
 36  37  40 0
 6-311+G(2d,p)
 ****
 1  2  3  4  5  16  17  18  19  20  21  22  23  24 0
 3-21G
 ****
 26  27  29  30  31  38  39 41  42  43  44  45  46  47  48 0
 3-21G
 ****


