%nproc=1
%NoSave
%Mem=1900MB
#P OB98/GEN NMR

erre ene a

0 1
  C     -899.143     486.910     -47.563
  O     -899.143     487.662     -48.769
  P     -897.973     487.482     -49.854
  C     -896.443     489.266     -48.792
  O     -897.213     488.900     -49.922
  C     -895.563     490.479     -49.097
  O     -894.533     490.143     -50.054
  C     -896.313     491.663     -49.710
  O     -897.053     492.349     -48.718
  C     -895.173     492.438     -50.340
  O     -894.533     493.268     -49.358
  C     -894.223     491.344     -50.820
  N     -894.323     491.076     -52.259
  C     -893.453     491.827     -53.060
  O     -892.683     492.654     -52.549
  N     -893.513     491.650     -54.416
  C     -894.393     490.826     -54.935
  N     -894.373     490.705     -56.305
  C     -895.323     490.046     -54.129
  C     -895.243     490.241     -52.803
  O     -898.413     486.936     -51.171
  O     -896.923     486.559     -49.083
  H     -893.713     493.642     -49.817
  H     -897.243     485.622     -49.026
  H     -896.023     489.385     -54.584
  H     -895.923     489.695     -52.127
  H     -893.193     491.597     -50.582
  H     -895.533     493.119     -51.153
  H     -896.993     491.273     -50.499
  H     -895.063     490.799     -48.155
  H     -893.723     491.299     -56.804
  H     -895.793     488.404     -48.537
  H     -895.023     490.130     -56.789
  H     -897.083     489.463     -47.943
  P     -898.653     492.482     -48.861
  C     -898.453     494.641     -50.253
  O     -898.993     494.051     -49.058
  O     -899.443     491.804     -47.801
  O     -898.953     491.852     -50.301
  H     -899.723     491.267     -50.237
  H     -899.003     495.578     -50.410
  H     -898.563     493.982     -51.103
  H     -897.423     494.899     -50.072
  H     -900.000     487.173     -46.979
  H     -898.254     487.125     -47.009
  H     -899.176     485.866     -47.794

 3  4  5  6  7  8  9  10  11  12  13  23  27  28  29  30  32 0
 6-311+G(2d,p)
 ****
 34  35 0
 6-311+G(2d,p)
 ****
 1  2  14  15  16  17  18  19  20  21  22  24  25  26 0
 3-21G
 ****
 31  33  36  37  38  39  40  41  42  43  44  45  46 0
 3-21G
 ****


