%nproc=1
%NoSave
%Mem=1900MB
#P OB98/GEN NMR

erre ene a

0 1
  C     -633.596    -897.340     498.204
  O     -632.807    -898.470     498.542
  H     -634.395    -897.250     498.930
  H     -634.028    -897.480     497.207
  H     -632.985    -896.430     498.226
  P     -631.455    -898.680     497.706
  C     -630.445    -896.900     499.351
  O     -630.549    -897.400     498.024
  C     -629.792    -895.520     499.350
  O     -628.370    -895.680     499.113
  C     -630.345    -894.570     498.289
  O     -630.373    -893.250     498.831
  C     -629.312    -894.640     497.167
  O     -629.334    -893.480     496.355
  C     -628.020    -894.860     497.972
  N     -626.966    -895.490     497.165
  C     -626.172    -894.660     496.398
  O     -626.383    -893.430     496.392
  N     -625.186    -895.200     495.616
  C     -625.070    -896.480     495.546
  N     -624.093    -896.960     494.732
  C     -625.917    -897.430     496.302
  C     -626.827    -896.870     497.102
  O     -631.950    -898.440     496.203
  O     -630.798    -900.000     497.940
  H     -630.199    -893.450     495.896
  H     -632.572    -897.690     496.122
  H     -625.788    -898.490     496.207
  H     -627.494    -897.480     497.696
  H     -627.626    -893.910     498.354
  H     -629.510    -895.510     496.530
  H     -631.342    -894.850     497.931
  H     -629.892    -895.100     500.358
  H     -623.531    -896.300     494.217
  H     -629.846    -897.590     499.968
  H     -623.930    -897.960     494.568
  H     -631.450    -896.850     499.770
  P     -631.793    -892.500     498.955
  C     -631.706    -891.790     501.429
  O     -632.323    -892.620     500.456
  O     -632.789    -892.810     497.902
  O     -631.370    -890.940     498.886
  H     -632.046    -890.470     498.353
  H     -632.152    -891.969     502.385
  H     -631.841    -890.763     501.159
  H     -630.660    -892.012     501.476

 6  7  8  9  10  11  12  13  14  15  16  26  30  31  32  33  35 0
 6-311+G(2d,p)
 ****
 37  38 0
 6-311+G(2d,p)
 ****
 1  2  3  4  5  17  18  19  20  21  22  23  24  25 0
 3-21G
 ****
 27  28  29  34  36  39  40  41  42  43  44  45  46 0
 3-21G
 ****


