%nproc=1
%NoSave
%Mem=1900MB
#P OB98/GEN NMR

erre ene a

0 1
  C     -235.788    -215.259    -729.794
  O     -234.887    -214.778    -730.770
  H     -236.614    -215.766    -730.310
  H     -236.205    -214.438    -729.211
  H     -235.289    -215.978    -729.136
  P     -233.678    -213.819    -730.305
  C     -233.367    -211.280    -730.119
  O     -234.198    -212.318    -730.619
  C     -233.436    -210.028    -731.007
  O     -232.842    -210.324    -732.304
  C     -234.866    -209.521    -731.261
  O     -234.906    -208.108    -731.066
  C     -235.123    -209.876    -732.724
  O     -236.120    -209.038    -733.308
  C     -233.709    -209.748    -733.312
  N     -233.562    -210.417    -734.597
  C     -234.159    -209.789    -735.700
  O     -234.803    -208.751    -735.551
  N     -234.037    -210.377    -736.935
  C     -233.440    -211.523    -737.061
  N     -233.371    -212.060    -738.306
  C     -232.830    -212.245    -735.908
  C     -232.925    -211.631    -734.722
  O     -232.353    -214.160    -730.889
  O     -233.712    -213.878    -728.703
  H     -236.383    -209.443    -734.176
  H     -232.834    -213.592    -728.349
  H     -232.345    -213.194    -736.062
  H     -232.505    -212.085    -733.833
  H     -233.426    -208.687    -733.431
  H     -235.462    -210.917    -732.795
  H     -235.604    -209.986    -730.605
  H     -232.808    -209.248    -730.565
  H     -233.800    -211.524    -739.067
  H     -232.333    -211.650    -730.058
  H     -232.926    -212.940    -738.520
  H     -233.716    -211.012    -729.107
  P     -236.250    -207.511    -730.414
  C     -238.513    -206.578    -731.294
  O     -237.325    -207.310    -731.596
  O     -235.840    -206.019    -730.010
  O     -236.740    -208.300    -729.234
  H     -235.647    -205.971    -729.058
  H     -239.130    -206.524    -732.166
  H     -238.252    -205.589    -730.980
  H     -239.047    -207.072    -730.509

 6  7  8  9  10  11  12  13  14  15  16  26  30  31  32  33  35 0
 6-311+G(2d,p)
 ****
 37  38 0
 6-311+G(2d,p)
 ****
 1  2  3  4  5  17  18  19  20  21  22  23  24  25 0
 3-21G
 ****
 27  28  29  34  36  39  40  41  42  43  44  45  46 0
 3-21G
 ****


