%nproc=1
%NoSave
%Mem=1900MB
#P OB98/GEN NMR

erre ene a

0 1
  C      -20.833    -549.821      56.284
  O      -19.701    -549.730      55.414
  P      -18.540    -550.832      55.615
  C      -18.687    -551.745      53.181
  O      -17.896    -551.111      54.174
  C      -18.058    -551.575      51.797
  O      -18.268    -550.249      51.289
  C      -16.553    -551.777      51.770
  O      -16.204    -553.154      51.757
  C      -16.185    -551.118      50.445
  O      -16.408    -552.045      49.362
  C      -17.181    -549.948      50.376
  N      -16.181    -545.225      48.841
  C      -16.794    -546.259      48.170
  N      -17.233    -545.987      46.918
  N      -16.967    -547.454      48.674
  C      -16.514    -547.570      49.946
  C      -15.885    -546.621      50.717
  C      -15.668    -545.309      50.136
  O      -15.102    -544.368      50.680
  N      -15.569    -547.108      51.964
  C      -16.035    -548.340      51.955
  N      -16.603    -548.669      50.746
  O      -19.371    -552.169      55.909
  O      -17.585    -550.512      56.713
  H      -15.909    -552.857      49.577
  H      -18.835    -552.786      56.445
  H      -16.067    -544.323      48.402
  H      -15.990    -549.031      52.789
  H      -17.623    -549.849      49.376
  H      -15.131    -550.820      50.397
  H      -17.197    -545.072      46.496
  H      -16.063    -551.242      52.599
  H      -17.719    -546.724      46.423
  H      -18.544    -552.293      51.114
  H      -19.692    -551.309      53.177
  H      -18.794    -552.802      53.440
  P      -15.245    -553.683      52.935
  C      -16.903    -555.225      54.204
  O      -15.799    -555.143      53.325
  O      -15.653    -552.766      54.179
  O      -13.787    -553.595      52.629
  H      -14.894    -552.653      54.784
  H      -17.665    -554.482      53.954
  H      -16.564    -555.067      55.235
  H      -17.338    -556.219      54.120
  H      -21.526    -549.040      56.051
  H      -20.511    -549.721      57.300
  H      -21.309    -550.770      56.152

 3  4  5  6  7  8  9  10  11  12  23  26  30  31  33  0
 6-311+G(2d,p)
 ****
 35  36  37  38 0
 6-311+G(2d,p)
 ****
 1  2  13  14  15  16  17  18  19  20  21  22  24  25  27  28  29 0
 3-21G
 ****
 32  34  39  40  41  42  43  44  45  46  47  48  49 0
 3-21G
 ****


