%nproc=1
%NoSave
%Mem=1900MB
#P OB98/GEN NMR

erre ene a

0 1
  C      490.887     428.369     -81.913
  O      491.321     427.908     -83.177
  P      491.014     426.447     -83.739
  C      493.444     425.525     -83.408
  O      492.060     425.419     -83.087
  C      493.767     424.742     -84.685
  O      495.134     425.033     -85.071
  C      493.691     423.219     -84.451
  O      493.074     422.496     -85.511
  C      495.124     422.855     -84.098
  O      495.422     421.479     -84.265
  C      495.917     423.823     -84.976
  N      500.740     422.296     -84.434
  C      499.736     421.753     -85.221
  N      500.005     420.555     -85.782
  N      498.566     422.326     -85.394
  C      498.404     423.460     -84.680
  C      499.322     424.095     -83.878
  C      500.620     423.473     -83.715
  O      501.496     423.859     -82.944
  N      498.787     425.189     -83.254
  C      497.531     425.207     -83.655
  N      497.245     424.152     -84.493
  O      490.742     426.340     -85.203
  O      489.649     426.079     -82.960
  H      495.465     421.297     -85.218
  H      489.113     425.528     -83.567
  H      501.586     421.768     -84.276
  H      496.786     425.924     -83.349
  H      496.052     423.430     -85.986
  H      495.271     423.084     -83.037
  H      500.828     420.031     -85.548
  H      493.047     422.993     -83.590
  H      499.210     420.028     -86.143
  H      493.118     425.075     -85.496
  H      493.992     425.107     -82.560
  H      493.734     426.571     -83.517
  P      491.765     421.589     -85.473
  C      493.024     419.355     -85.496
  O      492.130     420.186     -84.788
  O      491.500     421.175     -87.003
  O      490.551     422.259     -84.909
  H      490.549     421.196     -87.187
  H      492.975     418.347     -85.076
  H      494.045     419.727     -85.388
  H      492.756     419.311     -86.553
  H      491.217     429.376     -81.768
  H      491.297     427.746     -81.146
  H      489.819     428.334     -81.868

 3  4  5  6  7  8  9  10  11  12  23  26  30  31 0
 6-311+G(2d,p)
 ****
 33  35  36  37  38 0
 6-311+G(2d,p)
 ****
 1  2  13  14  15  16  17  18  19  20  21  22  24  25 0
 3-21G
 ****
 27  28  29  32  34  39  40  41  42  43  44  45  46  47  48  49 0
 3-21G
 ****


