%nproc=1
%NoSave
%Mem=1900MB
#P OB98/GEN NMR

erre ene a

0 1
  C      -54.349     338.934    -335.799
  O      -55.068     339.743    -336.711
  H      -54.961     338.082    -335.489
  H      -53.450     338.560    -336.295
  H      -54.052     339.521    -334.924
  P      -56.417     340.417    -336.162
  C      -58.021     338.938    -337.568
  O      -57.510     340.241    -337.323
  C      -59.021     338.976    -338.719
  O      -60.218     339.667    -338.314
  C      -58.529     339.703    -339.968
  O      -57.676     338.884    -340.751
  C      -59.849     339.972    -340.675
  O      -60.289     338.778    -341.349
  C      -60.783     340.292    -339.501
  N      -63.407     344.504    -340.748
  C      -63.547     343.212    -341.116
  N      -62.824     342.145    -340.724
  C      -61.878     342.507    -339.844
  C      -61.625     343.779    -339.357
  C      -62.439     344.814    -339.850
  N      -62.239     346.145    -339.515
  N      -60.560     343.765    -338.477
  C      -60.165     342.510    -338.451
  N      -60.935     341.713    -339.254
  O      -56.070     341.983    -336.194
  O      -56.841     339.974    -334.802
  H      -61.227     338.917    -341.582
  H      -55.785     342.267    -335.305
  H      -64.344     343.011    -341.825
  H      -59.333     342.136    -337.872
  H      -61.787     339.869    -339.641
  H      -59.778     340.761    -341.429
  H      -58.058     340.660    -339.720
  H      -59.300     337.939    -338.957
  H      -58.519     338.569    -336.667
  H      -62.533     346.794    -340.243
  H      -61.354     346.336    -339.063
  H      -57.185     338.276    -337.812
  P      -56.139     339.327    -340.891
  C      -56.576     340.586    -343.106
  O      -55.867     339.540    -342.458
  O      -55.352     337.979    -340.548
  O      -55.714     340.445    -339.998
  H      -54.728     338.135    -339.811
  H      -56.302     340.616    -344.140
  H      -56.333     341.521    -342.645
  H      -57.628     340.410    -343.021

 6  7  8  9  10  11  12  13  14  15  25  28  32  33  34  35 0
 6-311+G(2d,p)
 ****
 36  39  40 0
 6-311+G(2d,p)
 ****
 1  2  3  4  5  16  17  18  19  20  21  22  23  24 0
 3-21G
 ****
 26  27  29  30  31  37  38  41  42  43  44  45  46  47  48 0
 3-21G
 ****


