%nproc=1
%NoSave
%Mem=1900MB
#P OB98/GEN NMR

erre ene a

0 1
  C     -368.987     199.989     315.203
  O     -369.426     199.295     316.351
  H     -368.366     199.320     314.600
  H     -368.389     200.862     315.483
  H     -369.849     200.305     314.604
  P     -370.221     200.095     317.489
  C     -368.124     199.895     318.966
  O     -369.532     199.713     318.887
  C     -367.607     199.557     320.369
  O     -368.011     200.619     321.279
  C     -368.153     198.234     320.922
  O     -367.116     197.592     321.673
  C     -369.272     198.688     321.836
  O     -369.563     197.723     322.834
  C     -368.742     200.025     322.367
  N     -369.825     200.885     322.828
  C     -369.465     201.941     323.684
  O     -368.280     202.108     323.996
  N     -370.444     202.729     324.224
  C     -371.692     202.462     323.977
  N     -372.622     203.260     324.570
  C     -372.126     201.349     323.107
  C     -371.152     200.615     322.570
  O     -371.708     199.959     317.466
  O     -369.767     201.620     317.263
  H     -368.818     197.703     323.487
  H     -370.384     202.067     316.648
  H     -373.177     201.163     322.939
  H     -371.369     199.765     321.926
  H     -368.038     199.865     323.197
  H     -370.186     198.847     321.254
  H     -368.513     197.556     320.136
  H     -366.513     199.555     320.349
  H     -372.278     204.001     325.189
  H     -367.904     200.951     318.737
  H     -373.621     203.130     324.495
  H     -367.621     199.265     318.225
  P     -366.120     196.547     320.968
  C     -366.236     194.604     322.620
  O     -365.418     195.647     322.103
  O     -365.168     197.156     319.983
  O     -367.111     195.513     320.233
  H     -366.672     195.163     319.439
  H     -365.693     194.060     323.364
  H     -366.514     193.942     321.827
  H     -367.117     195.025     323.058

 6  7  8  9  10  11  12  13  14  15  16  26  30  31  32  33  35 0
 6-311+G(2d,p)
 ****
 37  38 0
 6-311+G(2d,p)
 ****
 1  2  3  4  5  17  18  19  20  21  22  23  24  25 0
 3-21G
 ****
 27  28  29  34  36  39  40  41  42  43  44  45  46 0
 3-21G
 ****


