%nproc=1
%NoSave
%Mem=1900MB
#P OB98/GEN NMR

erre ene a

0 1
  C      825.508    -787.991     460.249
  O      824.216    -787.667     460.716
  P      823.862    -787.821     462.273
  C      823.780    -785.347     462.996
  O      824.514    -786.571     463.048
  C      823.201    -785.025     464.379
  O      824.257    -784.968     465.368
  C      822.519    -783.675     464.455
  O      821.244    -783.720     463.865
  C      822.511    -783.425     465.964
  O      821.407    -784.125     466.590
  C      823.855    -784.043     466.393
  N      825.115    -779.841     468.982
  C      823.944    -780.510     468.891
  N      823.680    -781.598     468.140
  C      824.772    -781.979     467.425
  C      826.013    -781.362     467.417
  C      826.183    -780.254     468.263
  N      827.377    -779.584     468.418
  N      826.859    -782.004     466.537
  C      826.134    -783.000     466.049
  N      824.896    -783.049     466.589
  O      824.175    -789.155     462.871
  O      822.298    -787.509     462.360
  H      820.578    -783.716     466.228
  H      821.824    -788.296     462.704
  H      823.124    -780.140     469.480
  H      826.482    -783.708     465.264
  H      823.756    -784.624     467.316
  H      822.404    -782.376     466.206
  H      823.140    -782.902     463.968
  H      822.516    -785.829     464.666
  H      822.961    -785.468     462.275
  H      827.418    -778.898     469.163
  H      828.230    -780.057     468.124
  H      824.430    -784.531     462.651
  P      820.728    -782.533     462.917
  C      820.299    -783.894     460.792
  O      821.126    -782.923     461.407
  O      821.144    -781.163     463.347
  O      819.142    -782.686     462.923
  H      818.734    -781.790     462.837
  H      820.561    -784.887     461.165
  H      820.469    -783.857     459.711
  H      819.250    -783.693     460.989
  H      825.557    -787.827     459.193
  H      825.716    -789.019     460.460
  H      826.230    -787.373     460.740

 3  4  5  6  7  8  9  10  11  12  22  25  29  30  31  32 0
 6-311+G(2d,p)
 ****
 33  36  37 0
 6-311+G(2d,p)
 ****
 1  2  13  14  15  16  17  18  19  20  21  23  24  26 0
 3-21G
 ****
 27  28  34  35  38  39  40  41  42  43  44  45  46  47  48 0
 3-21G
 ****


