%nproc=1
%NoSave
%Mem=1900MB
#P OB98/GEN NMR

erre ene a

0 1
  C      -11.514     219.586     261.215
  O      -12.811     219.054     261.392
  H      -11.479     220.579     261.670
  H      -11.284     219.680     260.150
  H      -10.770     218.950     261.705
  P      -13.153     217.622     260.755
  C      -15.125     218.495     259.335
  O      -14.719     217.639     260.396
  C      -16.612     218.278     259.019
  O      -17.378     218.845     260.117
  C      -17.045     218.972     257.716
  O      -17.707     218.089     256.808
  C      -17.818     220.188     258.207
  O      -18.788     220.674     257.300
  C      -18.377     219.727     259.557
  N      -18.672     220.822     260.481
  C      -19.883     221.491     260.319
  O      -20.727     221.216     259.466
  N      -20.107     222.519     261.194
  C      -19.273     222.936     262.185
  O      -19.530     223.861     262.946
  C      -17.997     222.204     262.292
  C      -17.758     221.196     261.452
  O      -12.705     216.439     261.546
  O      -12.459     217.668     259.317
  H      -19.130     221.519     257.657
  H      -11.627     217.151     259.338
  H      -20.986     223.001     261.092
  H      -17.302     222.513     263.067
  H      -16.829     220.637     261.505
  H      -19.295     219.153     259.416
  H      -17.105     221.004     258.378
  H      -16.176     219.310     257.147
  H      -16.817     217.201     258.995
  H      -14.516     218.257     258.456
  H      -14.953     219.541     259.617
  P      -17.345     217.939     255.263
  C      -19.745     217.125     254.573
  O      -18.351     216.871     254.614
  O      -15.898     217.788     254.945
  O      -17.837     219.340     254.630
  H      -17.225     219.549     253.894
  H      -20.244     216.302     254.106
  H      -19.929     218.018     254.013
  H      -20.115     217.247     255.570

 6  7  8  9  10  11  12  13  14  15  16  26  31  32  33  34  35 0
 6-311+G(2d,p)
 ****
 36  37 0
 6-311+G(2d,p)
 ****
 1  2  3  4  5  17  18  19  20  21  22  23  24  25 0
 3-21G
 ****
 27  28  29  30  38  39  40  41  42  43  44  45 0
 3-21G
 ****


