%nproc=1
%NoSave
%Mem=1900MB
#P OB98/GEN NMR

erre ene a

0 1
  C      171.938    -164.923      75.177
  O      171.561    -165.264      73.857
  H      171.156    -164.311      75.633
  H      172.049    -165.842      75.758
  H      172.890    -164.381      75.184
  P      171.634    -164.105      72.749
  C      170.511    -163.870      70.416
  O      170.401    -164.357      71.747
  C      169.551    -164.617      69.488
  O      169.898    -166.034      69.513
  C      168.067    -164.491      69.879
  O      167.292    -164.388      68.676
  C      167.771    -165.831      70.545
  O      166.392    -166.180      70.473
  C      168.684    -166.764      69.760
  N      168.608    -171.846      69.488
  C      168.565    -170.894      68.533
  N      168.645    -169.554      68.689
  C      168.852    -169.234      69.984
  C      168.928    -170.100      71.066
  C      168.773    -171.468      70.779
  N      168.747    -172.443      71.752
  N      169.089    -169.384      72.236
  C      169.088    -168.117      71.872
  N      168.945    -167.979      70.519
  O      172.915    -164.537      71.881
  O      171.759    -162.716      73.278
  H      166.136    -166.250      69.533
  H      173.720    -164.161      72.282
  H      168.439    -171.244      67.514
  H      169.155    -167.268      72.542
  H      168.261    -167.064      68.795
  H      168.060    -165.782      71.601
  H      167.854    -163.643      70.530
  H      169.716    -164.267      68.463
  H      171.537    -164.023      70.068
  H      168.529    -173.389      71.466
  H      168.757    -172.169      72.721
  H      170.290    -162.798      70.400
  P      166.695    -162.946      68.308
  C      165.774    -161.879      66.111
  O      165.935    -163.054      66.898
  O      167.998    -162.085      67.959
  O      165.895    -162.325      69.410
  H      167.864    -161.155      68.215
  H      165.251    -162.122      65.210
  H      166.736    -161.478      65.868
  H      165.214    -161.154      66.663

 6  7  8  9  10  11  12  13  14  15  25  28  32  33  34  35 0
 6-311+G(2d,p)
 ****
 36  39  40 0
 6-311+G(2d,p)
 ****
 1  2  3  4  5  16  17  18  19  20  21  22  23  24 0
 3-21G
 ****
 26  27  29  30  31  37  38  41  42  43  44  45  46  47 0
 3-21G
 ****
 48 0
 3-21G
 ****


