%nproc=1
%NoSave
%Mem=1900MB
#P OB98/GEN NMR

erre ene a

0 1
  C      194.973    -471.400       4.423
  O      193.782    -472.159       4.397
  H      194.857    -470.597       5.155
  H      195.158    -470.952       3.443
  H      195.823    -472.021       4.718
  P      193.719    -473.469       3.473
  C      192.975    -475.901       3.851
  O      192.832    -474.551       4.264
  C      192.288    -476.840       4.839
  O      193.003    -476.794       6.100
  C      190.823    -476.480       5.114
  O      190.079    -477.691       5.254
  C      190.882    -475.761       6.448
  O      189.658    -475.859       7.172
  C      192.055    -476.465       7.134
  N      191.268    -474.103      11.528
  C      190.445    -474.950      10.812
  N      189.220    -475.189      11.328
  N      190.793    -475.517       9.686
  C      192.051    -475.200       9.294
  C      192.959    -474.374       9.912
  C      192.559    -473.744      11.153
  O      193.234    -472.973      11.823
  N      194.124    -474.283       9.187
  C      193.917    -475.052       8.135
  N      192.671    -475.623       8.147
  O      195.041    -473.983       2.999
  O      192.775    -473.040       2.256
  H      189.728    -475.253       7.941
  H      193.308    -472.810       1.470
  H      190.944    -473.688      12.387
  H      194.626    -475.225       7.336
  H      191.748    -477.393       7.634
  H      191.104    -474.699       6.287
  H      188.888    -474.802      12.200
  H      190.384    -475.858       4.331
  H      188.608    -475.827      10.831
  H      192.376    -477.865       4.463
  H      194.044    -476.134       3.803
  H      192.542    -476.024       2.852
  P      188.780    -477.908       4.339
  C      186.666    -479.365       4.542
  O      187.645    -478.601       5.236
  O      189.025    -478.549       3.013
  O      188.217    -476.414       4.165
  H      187.763    -476.352       3.299
  H      185.969    -479.773       5.244
  H      187.145    -480.161       4.011
  H      186.147    -478.735       3.849

 6  7  8  9  10  11  12  13  14  15  26  29  33  34 0
 6-311+G(2d,p)
 ****
 36  38  39  40  41 0
 6-311+G(2d,p)
 ****
 1  2  3  4  5  16  17  18  19  20  21  22  23  24  25 0
 3-21G
 ****
 27  28  30  31  32  35  37  42  43  44  45  46  47 0
 3-21G
 ****
 48  49 0
 3-21G
 ****


