%nproc=1
%NoSave
%Mem=1900MB
#P OB98/GEN NMR

erre ene a

0 1
  C       49.003      79.855     -86.205
  O       49.328      80.077     -84.840
  P       48.162      79.857     -83.757
  C       47.924      82.286     -82.879
  O       47.373      81.251     -83.685
  C       46.842      82.930     -82.021
  O       45.766      83.391     -82.859
  C       46.197      81.995     -81.009
  O       46.990      81.848     -79.841
  C       44.905      82.738     -80.704
  O       45.158      83.772     -79.735
  C       44.551      83.356     -82.067
  N       39.680      81.984     -82.222
  C       40.347      82.778     -81.311
  N       39.603      83.303     -80.313
  N       41.627      83.033     -81.371
  C       42.235      82.475     -82.443
  C       41.682      81.667     -83.413
  C       40.275      81.351     -83.307
  O       39.645      80.600     -84.047
  N       42.615      81.305     -84.351
  C       43.717      81.920     -83.973
  N       43.545      82.617     -82.803
  O       48.962      79.815     -82.371
  O       47.333      78.636     -83.958
  H       44.299      84.188     -79.529
  H       48.451      79.308     -81.709
  H       38.691      81.834     -82.139
  H       44.654      81.887     -84.510
  H       44.212      84.393     -81.957
  H       44.128      82.091     -80.285
  H       38.597      83.250     -80.289
  H       45.964      81.024     -81.460
  H       40.068      83.917     -79.657
  H       47.278      83.802     -81.517
  H       48.366      83.051     -83.526
  H       48.712      81.862     -82.249
  P       46.717      80.542     -78.946
  C       46.104      81.687     -76.695
  O       45.647      81.003     -77.846
  O       48.075      80.374     -78.119
  O       46.376      79.321     -79.730
  H       48.201      79.440     -77.863
  H       46.939      82.353     -76.931
  H       46.420      80.960     -75.942
  H       45.284      82.284     -76.291
  H       49.866      80.037     -86.811
  H       48.216      80.519     -86.497
  H       48.682      78.843     -86.335

 3  4  5  6  7  8  9  10  11  12  23  26  30  31  33  0
 6-311+G(2d,p)
 ****
 35  36  37  38 0
 6-311+G(2d,p)
 ****
 1  2  13  14  15  16  17  18  19  20  21  22  24  25  27  28  29 0
 3-21G
 ****
 32  34  39  40  41  42  43  44  45  46  47  48  49 0
 3-21G
 ****


