%nproc=1
%NoSave
%Mem=1900MB
#P OB98/GEN NMR

erre ene a

0 1
  C        9.572    -603.575    -297.153
  O        8.192    -603.327    -297.323
  H        9.915    -604.221    -297.964
  H        9.750    -604.083    -296.203
  H       10.136    -602.638    -297.183
  P        7.485    -602.374    -296.244
  C        6.359    -604.342    -294.963
  O        7.309    -603.288    -294.929
  C        6.726    -605.427    -293.939
  O        6.720    -604.849    -292.608
  C        5.761    -606.608    -293.936
  O        6.504    -607.828    -293.847
  C        4.912    -606.403    -292.699
  O        4.383    -607.624    -292.185
  C        5.889    -605.662    -291.769
  N        5.190    -604.861    -290.770
  C        5.275    -605.288    -289.437
  O        5.903    -606.305    -289.154
  N        4.599    -604.587    -288.474
  C        3.853    -603.578    -288.815
  N        3.192    -602.938    -287.815
  C        3.691    -603.122    -290.209
  C        4.392    -603.800    -291.124
  O        5.992    -602.244    -296.808
  O        8.157    -601.062    -296.008
  H        3.757    -607.402    -291.457
  H        5.499    -601.514    -296.363
  H        3.047    -602.292    -290.443
  H        4.329    -603.532    -292.177
  H        6.538    -606.384    -291.246
  H        4.064    -605.748    -292.937
  H        5.129    -606.648    -294.829
  H        7.754    -605.752    -294.135
  H        3.312    -603.286    -286.872
  H        6.346    -604.779    -295.969
  H        2.559    -602.165    -287.961
  H        5.370    -603.942    -294.732
  P        6.294    -608.873    -295.048
  C        4.713    -610.606    -293.952
  O        4.842    -609.535    -294.872
  O        7.309    -610.056    -294.701
  O        6.553    -608.278    -296.394
  H        8.128    -609.971    -295.218
  H        3.698    -610.945    -293.939
  H        4.989    -610.271    -292.974
  H        5.354    -611.410    -294.248

 6  7  8  9  10  11  12  13  14  15  16  26  30  31  32  33  35 0
 6-311+G(2d,p)
 ****
 37  38 0
 6-311+G(2d,p)
 ****
 1  2  3  4  5  17  18  19  20  21  22  23  24  25 0
 3-21G
 ****
 27  28  29  34  36  39  40  41  42  43  44  45  46 0
 3-21G
 ****


