%nproc=1
%NoSave
%Mem=1900MB
#P OB98/GEN NMR

erre ene a

0 1
  C     -934.424    -264.537    -144.824
  O     -935.407    -264.716    -145.824
  H     -934.851    -264.833    -143.861
  H     -934.129    -263.484    -144.768
  H     -933.552    -265.157    -145.033
  P     -934.975    -264.352    -147.331
  C     -936.476    -266.291    -148.198
  O     -936.135    -264.912    -148.283
  C     -937.284    -266.693    -149.435
  O     -938.669    -266.310    -149.266
  C     -936.831    -266.013    -150.714
  O     -935.670    -266.604    -151.268
  C     -938.065    -266.185    -151.592
  O     -938.095    -267.472    -152.211
  C     -939.210    -266.056    -150.574
  N     -942.680    -263.190    -152.987
  C     -942.336    -264.494    -153.119
  N     -941.409    -265.186    -152.426
  C     -940.832    -264.407    -151.501
  C     -941.074    -263.065    -151.245
  C     -942.052    -262.446    -152.040
  N     -942.396    -261.113    -151.934
  N     -940.251    -262.603    -150.237
  C     -939.515    -263.637    -149.886
  N     -939.838    -264.751    -150.613
  O     -933.749    -265.340    -147.607
  O     -934.601    -262.922    -147.548
  H     -937.273    -267.543    -152.742
  H     -932.906    -264.865    -147.490
  H     -942.877    -265.043    -153.874
  H     -938.753    -263.628    -149.120
  H     -940.001    -266.801    -150.748
  H     -938.100    -265.430    -152.378
  H     -936.673    -264.940    -150.540
  H     -937.243    -267.790    -149.532
  H     -937.074    -266.462    -147.298
  H     -935.555    -266.876    -148.131
  H     -943.050    -260.727    -152.574
  H     -941.847    -260.527    -151.304
  P     -934.838    -265.747    -152.330
  C     -932.441    -266.763    -152.057
  O     -933.626    -266.673    -152.843
  O     -934.106    -264.633    -151.452
  O     -935.654    -265.150    -153.427
  H     -934.055    -263.800    -151.955
  H     -931.742    -267.415    -152.539
  H     -932.683    -267.152    -151.090
  H     -932.008    -265.790    -151.952

 6  7  8  9  10  11  12  13  14  15  25  28  32  33  34  35 0
 6-311+G(2d,p)
 ****
 36  37  40 0
 6-311+G(2d,p)
 ****
 1  2  3  4  5  16  17  18  19  20  21  22  23  24 0
 3-21G
 ****
 26  27  29  30  31  38  39 41  42  43  44  45  46  47  48 0
 3-21G
 ****


