%nproc=1
%NoSave
%Mem=1900MB
#P OB98/GEN NMR

erre ene a

0 1
  C      506.760    -451.229     140.349
  O      507.294    -450.130     141.074
  P      508.434    -449.257     140.342
  C      507.971    -447.211     141.911
  O      508.911    -448.162     141.410
  C      508.304    -446.875     143.363
  O      508.095    -448.035     144.204
  C      509.746    -446.444     143.589
  O      509.909    -445.073     143.274
  C      509.931    -446.751     145.077
  O      509.370    -445.705     145.886
  C      509.128    -448.055     145.233
  N      512.673    -450.903     147.453
  C      512.206    -449.643     147.782
  N      512.739    -449.075     148.894
  N      511.311    -448.994     147.087
  C      510.886    -449.667     145.993
  C      511.277    -450.915     145.560
  C      512.238    -451.643     146.358
  O      512.603    -452.802     146.163
  N      510.636    -451.261     144.390
  C      509.840    -450.243     144.154
  N      509.932    -449.263     145.102
  O      507.606    -448.419     139.259
  O      509.543    -450.055     139.733
  H      509.883    -444.881     145.761
  H      507.670    -448.840     138.376
  H      513.357    -451.359     148.034
  H      509.149    -450.176     143.315
  H      508.617    -448.107     146.203
  H      510.984    -446.840     145.359
  H      513.453    -449.511     149.464
  H      510.436    -447.058     143.000
  H      512.412    -448.154     149.151
  H      507.605    -446.092     143.698
  H      506.970    -447.637     141.859
  H      508.012    -446.309     141.288
  P      511.119    -444.676     142.291
  C      509.993    -442.538     141.314
  O      511.054    -443.091     142.081
  O      510.653    -445.264     140.870
  O      512.448    -445.218     142.696
  H      511.434    -445.597     140.383
  H      509.783    -441.529     141.685
  H      509.092    -443.149     141.388
  H      510.308    -442.481     140.268
  H      506.018    -451.721     140.943
  H      507.545    -451.918     140.116
  H      506.315    -450.876     139.443

 3  4  5  6  7  8  9  10  11  12  23  26  30  31 0
 6-311+G(2d,p)
 ****
 33  35  36  37  38 0
 6-311+G(2d,p)
 ****
 1  2  13  14  15  16  17  18  19  20  21  22  24  25 0
 3-21G
 ****
 27  28  29  32  34  39  40  41  42  43  44  45  46  47  48  49 0
 3-21G
 ****


