%nproc=1
%NoSave
%Mem=1900MB
#P OB98/GEN NMR

erre ene a

0 1
  C      -69.456     196.861       5.925
  O      -68.911     198.060       6.446
  P      -68.301     199.178       5.477
  C      -66.010     198.900       6.594
  O      -66.720     198.927       5.367
  C      -64.612     198.296       6.422
  O      -63.986     198.149       7.727
  C      -64.606     196.916       5.745
  O      -63.460     196.868       4.889
  C      -64.448     195.954       6.908
  O      -63.925     194.701       6.508
  C      -63.536     196.779       7.835
  N      -63.580     196.315       9.207
  C      -62.503     195.524       9.640
  O      -61.652     195.146       8.836
  N      -62.437     195.178      10.966
  C      -63.442     195.433      11.745
  N      -63.311     195.127      13.070
  C      -64.698     196.041      11.267
  C      -64.682     196.489      10.012
  O      -68.681     200.583       5.819
  O      -68.833     198.781       4.022
  H      -69.270     199.553       3.618
  H      -64.586     194.244       5.945
  H      -65.561     196.117      11.919
  H      -65.546     196.984       9.568
  H      -62.500     196.754       7.477
  H      -65.419     195.789       7.386
  H      -65.508     196.733       5.146
  H      -64.005     199.001       5.848
  H      -62.418     194.753      13.370
  H      -66.575     198.290       7.300
  H      -63.889     195.571      13.783
  H      -65.942     199.914       7.012
  P      -63.535     195.987       3.551
  C      -62.238     193.933       4.480
  O      -63.461     194.439       3.972
  O      -62.085     196.232       2.914
  O      -64.595     196.366       2.559
  H      -62.131     196.088       1.947
  H      -62.347     192.858       4.645
  H      -61.994     194.413       5.424
  H      -61.433     194.093       3.752
  H      -69.809     196.250       6.730
  H      -68.701     196.333       5.381
  H      -70.270     197.094       5.271

 3  4  5  6  7  8  9  10  11  12  13  24  27  28  29  30  32 0
 6-311+G(2d,p)
 ****
 34  35 0
 6-311+G(2d,p)
 ****
 1  2  14  15  16  17  18  19  20  21  22  23  25  26 0
 3-21G
 ****
 31  33  36  37  38  39  40  41  42  43  44  45  46 0
 3-21G
 ****


