%nproc=1
%NoSave
%Mem=1900MB
#P OB98/GEN NMR

erre ene a

0 1
  C      152.391      87.426    -651.776
  O      151.130      88.057    -651.866
  H      153.141      88.032    -652.290
  H      152.670      87.343    -650.722
  H      152.357      86.422    -652.213
  P      150.389      88.016    -653.288
  C      148.474      86.444    -652.510
  O      149.608      86.613    -653.350
  C      148.268      84.966    -652.181
  O      149.562      84.378    -651.856
  C      147.325      84.707    -650.995
  O      146.534      83.553    -651.290
  C      148.276      84.376    -649.859
  O      147.676      83.571    -648.854
  C      149.405      83.678    -650.609
  N      152.398      80.873    -647.605
  C      151.402      80.537    -648.453
  N      150.689      81.346    -649.259
  C      151.142      82.610    -649.187
  C      152.150      83.100    -648.377
  C      152.784      82.168    -647.541
  N      153.753      82.510    -646.626
  N      152.282      84.468    -648.548
  C      151.349      84.795    -649.423
  N      150.633      83.707    -649.836
  O      151.610      87.812    -654.306
  O      149.575      89.220    -653.625
  H      148.287      83.501    -648.095
  H      151.973      88.681    -654.557
  H      151.135      79.485    -648.474
  H      151.134      85.799    -649.762
  H      149.178      82.625    -650.833
  H      148.628      85.305    -649.393
  H      146.671      85.555    -650.758
  H      147.905      84.458    -653.082
  H      147.587      86.819    -653.029
  H      154.077      81.793    -645.992
  H      153.976      83.485    -646.489
  H      148.618      87.022    -651.592
  P      145.174      83.783    -652.105
  C      145.906      82.423    -654.204
  O      145.494      83.678    -653.672
  O      144.872      85.339    -651.892
  O      144.035      82.933    -651.637
  H      143.911      85.500    -651.869
  H      146.079      82.521    -655.255
  H      145.140      81.695    -654.035
  H      146.808      82.110    -653.722

 6  7  8  9  10  11  12  13  14  15  25  28  32  33  34  35 0
 6-311+G(2d,p)
 ****
 36  39  40 0
 6-311+G(2d,p)
 ****
 1  2  3  4  5  16  17  18  19  20  21  22  23  24 0
 3-21G
 ****
 26  27  29  30  31  37  38  41  42  43  44  45  46  47 0
 3-21G
 ****
 48 0
 3-21G
 ****


