%nproc=1
%NoSave
%Mem=1900MB
#P OB98/GEN NMR

erre ene a

0 1
  C     -230.088     191.977      61.910
  O     -231.508     192.186      61.991
  P     -232.340     192.422      60.634
  C     -232.675     194.955      61.160
  O     -232.300     193.967      60.214
  C     -232.485     196.372      60.597
  O     -231.092     196.782      60.722
  C     -232.868     196.519      59.114
  O     -233.378     197.848      58.940
  C     -231.524     196.382      58.416
  O     -231.521     196.911      57.099
  C     -230.629     197.137      59.402
  N     -229.200     196.849      59.258
  C     -228.500     197.502      58.249
  O     -229.009     198.262      57.431
  N     -227.154     197.231      58.183
  C     -226.469     196.357      58.979
  O     -225.271     196.134      58.848
  C     -227.265     195.673      60.007
  C     -228.571     195.948      60.099
  O     -233.853     192.247      61.141
  O     -232.054     191.454      59.533
  H     -231.762     197.854      57.165
  H     -234.347     191.679      60.517
  H     -226.630     197.705      57.470
  H     -226.757     194.977      60.664
  H     -229.176     195.462      60.858
  H     -230.791     198.215      59.290
  H     -231.259     195.321      58.353
  H     -233.607     195.782      58.785
  H     -233.073     197.061      61.211
  H     -232.055     194.846      62.059
  H     -233.720     194.798      61.446
  P     -234.948     198.100      59.176
  C     -235.452     199.005      56.774
  O     -235.664     198.007      57.747
  O     -234.941     199.678      59.477
  O     -235.546     197.291      60.281
  H     -234.387     200.175      58.858
  H     -234.406     199.316      56.742
  H     -236.085     199.867      56.988
  H     -235.727     198.600      55.793
  H     -229.691     191.837      62.894
  H     -229.627     192.830      61.458
  H     -229.889     191.108      61.318

 3  4  5  6  7  8  9  10  11  12  13  23  28  29  30  31  32 0
 6-311+G(2d,p)
 ****
 33  34 0
 6-311+G(2d,p)
 ****
 1  2  14  15  16  17  18  19  20  21  22  24  25  26 0
 3-21G
 ****
 27  35  36  37  38  39  40  41  42  43  44  45 0
 3-21G
 ****


