%nproc=1
%NoSave
%Mem=1900MB
#P OB98/GEN NMR

erre ene a

0 1
  C      401.832    -329.759     145.494
  O      402.838    -330.751     145.570
  H      402.285    -328.787     145.699
  H      401.046    -329.943     146.229
  H      401.404    -329.740     144.488
  P      402.382    -332.290     145.582
  C      402.755    -332.451     143.036
  O      401.820    -332.581     144.103
  C      402.470    -333.461     141.926
  O      402.544    -334.811     142.429
  C      401.079    -333.346     141.322
  O      400.841    -332.160     140.600
  C      400.931    -334.689     140.621
  O      401.549    -334.703     139.337
  C      401.696    -335.625     141.590
  N      400.798    -336.462     142.379
  C      400.470    -337.693     141.826
  O      400.874    -338.079     140.734
  N      399.623    -338.471     142.570
  C      399.049    -338.122     143.754
  O      398.277    -338.855     144.362
  C      399.404    -336.788     144.269
  C      400.249    -336.031     143.572
  O      401.433    -332.677     146.678
  O      403.761    -333.100     145.609
  H      401.138    -333.987     138.815
  H      403.617    -334.044     145.866
  H      399.381    -339.376     142.193
  H      398.957    -336.474     145.203
  H      400.530    -335.045     143.931
  H      402.366    -336.287     141.024
  H      399.883    -334.967     140.482
  H      400.350    -333.347     142.144
  H      403.246    -333.352     141.159
  H      403.755    -332.639     143.443
  H      402.719    -331.433     142.640
  P      399.432    -331.772     139.972
  C      398.491    -329.892     141.526
  O      398.469    -331.263     141.149
  O      398.865    -332.714     138.959
  O      399.787    -330.391     139.208
  H      399.230    -330.358     138.405
  H      397.792    -329.729     142.320
  H      398.223    -329.287     140.685
  H      399.474    -329.629     141.857

 6  7  8  9  10  11  12  13  14  15  16  26  31  32  33  34  35 0
 6-311+G(2d,p)
 ****
 36  37 0
 6-311+G(2d,p)
 ****
 1  2  3  4  5  17  18  19  20  21  22  23  24  25 0
 3-21G
 ****
 27  28  29  30  38  39  40  41  42  43  44  45 0
 3-21G
 ****


