%nproc=1
%NoSave
%Mem=1900MB
#P OB98/GEN NMR

erre ene a

0 1
  C     -394.596    -167.111     -96.272
  O     -395.343    -168.147     -96.879
  H     -394.711    -167.184     -95.189
  H     -394.968    -166.137     -96.602
  H     -393.537    -167.210     -96.524
  P     -395.290    -168.229     -98.480
  C     -397.874    -168.376     -98.726
  O     -396.617    -169.004     -98.939
  C     -398.999    -169.373     -98.986
  O     -398.877    -169.909    -100.324
  C     -398.975    -170.583     -98.062
  O     -399.506    -170.296     -96.781
  C     -399.808    -171.575     -98.856
  O     -401.210    -171.369     -98.646
  C     -399.433    -171.243    -100.305
  N     -397.606    -173.266    -104.621
  C     -398.497    -172.278    -104.394
  N     -398.923    -171.788    -103.211
  C     -398.304    -172.408    -102.192
  C     -397.371    -173.429    -102.268
  C     -397.017    -173.862    -103.556
  N     -396.129    -174.884    -103.787
  N     -396.994    -173.836    -101.004
  C     -397.678    -173.072    -100.179
  N     -398.480    -172.189    -100.851
  O     -394.118    -169.286     -98.749
  O     -395.039    -166.932     -99.172
  H     -401.340    -171.337     -97.678
  H     -393.297    -168.810     -98.977
  H     -398.935    -171.827    -105.281
  H     -397.635    -173.119     -99.098
  H     -400.305    -171.241    -100.970
  H     -399.575    -172.599     -98.566
  H     -397.951    -170.971     -97.976
  H     -399.959    -168.847     -98.914
  H     -397.978    -167.529     -99.412
  H     -397.916    -168.006     -97.696
  H     -395.974    -175.189    -104.734
  H     -395.774    -175.411    -102.999
  P     -398.576    -170.579     -95.508
  C     -400.316    -172.144     -94.359
  O     -399.542    -170.954     -94.287
  O     -398.011    -169.134     -95.116
  O     -397.476    -171.557     -95.747
  H     -397.096    -169.213     -94.785
  H     -400.901    -172.243     -93.469
  H     -399.665    -172.988     -94.454
  H     -400.965    -172.097     -95.209

 6  7  8  9  10  11  12  13  14  15  25  28  32  33  34  35 0
 6-311+G(2d,p)
 ****
 36  37  40 0
 6-311+G(2d,p)
 ****
 1  2  3  4  5  16  17  18  19  20  21  22  23  24 0
 3-21G
 ****
 26  27  29  30  31  38  39 41  42  43  44  45  46  47  48 0
 3-21G
 ****


