%nproc=1
%NoSave
%Mem=1900MB
#P OB98/GEN NMR

erre ene a

0 1
  C      -72.187     -30.886      -3.789
  O      -71.507     -29.698      -4.142
  H      -72.819     -31.191      -4.628
  H      -72.822     -30.706      -2.919
  H      -71.477     -31.689      -3.573
  P      -70.371     -29.192      -3.128
  C      -70.322     -29.044      -0.537
  O      -71.098     -28.933      -1.720
  C      -71.201     -28.834       0.692
  O      -71.662     -27.466       0.753
  C      -72.452     -29.706       0.724
  O      -72.175     -31.010       1.217
  C      -73.314     -28.922       1.699
  O      -72.864     -29.161       3.048
  C      -73.016     -27.474       1.288
  N      -76.878     -24.300       0.452
  C      -76.209     -24.594       1.625
  N      -76.636     -23.959       2.737
  N      -75.214     -25.438       1.704
  C      -74.902     -26.008       0.515
  C      -75.488     -25.796      -0.713
  C      -76.581     -24.854      -0.787
  O      -77.193     -24.539      -1.804
  N      -74.891     -26.548      -1.689
  C      -73.959     -27.229      -1.053
  N      -73.928     -26.942       0.290
  O      -70.041     -27.712      -3.650
  O      -69.141     -30.033      -3.072
  H      -73.459     -28.661       3.636
  H      -69.087     -27.541      -3.529
  H      -77.645     -23.650       0.448
  H      -73.283     -27.934      -1.514
  H      -73.036     -26.786       2.141
  H      -74.365     -29.209       1.657
  H      -77.428     -23.334       2.755
  H      -72.945     -29.738      -0.255
  H      -76.141     -24.133       3.602
  H      -70.584     -29.011       1.583
  H      -69.533     -28.284      -0.551
  H      -69.861     -30.036      -0.505
  P      -72.919     -32.246       0.509
  C      -75.418     -32.816       0.089
  O      -74.477     -32.060       0.843
  O      -72.493     -33.492       1.420
  O      -72.573     -32.453      -0.925
  H      -72.568     -34.320       0.909
  H      -76.409     -32.587       0.423
  H      -75.228     -33.860       0.225
  H      -75.325     -32.569      -0.948

 6  7  8  9  10  11  12  13  14  15  26  29  33  34 0
 6-311+G(2d,p)
 ****
 36  38  39  40  41 0
 6-311+G(2d,p)
 ****
 1  2  3  4  5  16  17  18  19  20  21  22  23  24  25 0
 3-21G
 ****
 27  28  30  31  32  35  37  42  43  44  45  46  47 0
 3-21G
 ****
 48  49 0
 3-21G
 ****


