%nproc=1
%NoSave
%Mem=1900MB
#P OB98/GEN NMR

erre ene a

0 1
  C      848.512     181.854     264.262
  O      849.524     182.840     264.355
  H      848.985     180.863     264.273
  H      847.965     181.969     263.322
  H      847.824     181.929     265.110
  P      849.041     184.352     264.531
  C      850.800     185.038     262.701
  O      849.472     185.147     263.203
  C      850.797     185.079     261.181
  O      850.033     183.984     260.633
  C      850.110     186.313     260.598
  O      850.874     187.484     260.767
  C      849.970     185.884     259.138
  O      851.210     186.038     258.424
  C      849.607     184.383     259.297
  N      848.182     184.131     259.083
  C      847.857     183.478     257.888
  O      848.751     183.143     257.095
  N      846.539     183.241     257.611
  C      845.619     183.603     258.456
  N      844.328     183.346     258.117
  C      845.919     184.267     259.741
  C      847.211     184.511     259.978
  O      850.063     184.921     265.629
  O      847.598     184.526     264.879
  H      851.316     186.990     258.271
  H      850.998     184.791     265.394
  H      845.126     184.547     260.406
  H      847.523     184.996     260.906
  H      850.178     183.777     258.580
  H      849.224     186.482     258.609
  H      849.104     186.432     261.013
  H      851.828     184.986     260.825
  H      844.156     182.906     257.214
  H      851.280     184.130     263.066
  H      843.534     183.617     258.667
  H      851.371     185.888     263.095
  P      850.432     188.593     261.855
  C      849.917     190.067     259.805
  O      849.461     189.607     261.082
  O      851.555     189.234     262.596
  O      849.406     187.796     262.794
  H      848.625     187.437     262.330
  H      849.192     190.734     259.386
  H      850.051     189.230     259.152
  H      850.848     190.581     259.923

 6  7  8  9  10  11  12  13  14  15  16  26  30  31  32  33  35 0
 6-311+G(2d,p)
 ****
 37  38 0
 6-311+G(2d,p)
 ****
 1  2  3  4  5  17  18  19  20  21  22  23  24  25 0
 3-21G
 ****
 27  28  29  34  36  39  40  41  42  43  44  45  46 0
 3-21G
 ****


