%nproc=1
%NoSave
%Mem=1900MB
#P OB98/GEN NMR

erre ene a

0 1
  C     -617.215    -940.416     102.929
  O     -616.495    -939.227     103.197
  H     -617.211    -940.599     101.850
  H     -618.248    -940.311     103.261
  H     -616.741    -941.273     103.433
  P     -616.207    -938.887     104.734
  C     -617.496    -936.647     104.538
  O     -617.368    -937.888     105.214
  C     -618.637    -935.828     105.154
  O     -619.911    -936.455     104.872
  C     -618.555    -935.682     106.673
  O     -617.662    -934.645     107.062
  C     -619.993    -935.345     107.002
  O     -620.248    -933.957     106.684
  C     -620.772    -936.265     106.040
  N     -624.023    -938.756     109.014
  C     -623.987    -937.418     108.674
  N     -624.927    -936.630     109.213
  N     -623.074    -936.898     107.879
  C     -622.188    -937.805     107.430
  C     -622.125    -939.160     107.684
  C     -623.132    -939.731     108.545
  O     -623.222    -940.909     108.860
  N     -621.072    -939.749     107.028
  C     -620.487    -938.748     106.394
  N     -621.111    -937.541     106.611
  O     -614.917    -937.935     104.665
  O     -615.960    -940.069     105.615
  H     -621.182    -933.797     106.892
  H     -614.344    -938.122     105.430
  H     -624.728    -939.125     109.633
  H     -619.616    -938.855     105.768
  H     -621.706    -935.797     105.688
  H     -620.237    -935.472     108.060
  H     -625.613    -936.969     109.877
  H     -618.293    -936.641     107.141
  H     -624.930    -935.659     108.975
  H     -618.638    -934.844     104.679
  H     -617.726    -936.824     103.485
  H     -616.549    -936.099     104.610
  P     -617.341    -934.483     108.624
  C     -618.264    -932.055     108.476
  O     -618.311    -933.322     109.154
  O     -615.887    -933.801     108.630
  O     -617.360    -935.760     109.415
  H     -615.435    -933.993     109.461
  H     -618.958    -931.380     108.932
  H     -618.523    -932.191     107.447
  H     -617.276    -931.650     108.544

 6  7  8  9  10  11  12  13  14  15  26  29  33  34 0
 6-311+G(2d,p)
 ****
 36  38  39  40  41 0
 6-311+G(2d,p)
 ****
 1  2  3  4  5  16  17  18  19  20  21  22  23  24  25 0
 3-21G
 ****
 27  28  30  31  32  35  37  42  43  44  45  46  47 0
 3-21G
 ****
 48  49 0
 3-21G
 ****


