%nproc=1
%NoSave
%Mem=1900MB
#P OB98/GEN NMR

erre ene a

0 1
  C     -365.791    -719.914    -238.211
  O     -365.496    -721.297    -238.226
  H     -366.812    -719.772    -237.841
  H     -365.727    -719.504    -239.220
  H     -365.104    -719.378    -237.547
  P     -364.016    -721.770    -238.595
  C     -364.041    -723.815    -237.023
  O     -363.956    -723.361    -238.370
  C     -363.654    -725.289    -236.952
  O     -364.771    -726.121    -237.327
  C     -362.509    -725.679    -237.884
  O     -361.265    -725.236    -237.368
  C     -362.689    -727.188    -237.927
  O     -362.148    -727.811    -236.753
  C     -364.232    -727.316    -237.943
  N     -364.776    -727.508    -239.300
  C     -365.008    -728.817    -239.674
  O     -364.779    -729.793    -238.943
  N     -365.478    -729.003    -240.948
  C     -365.646    -728.022    -241.884
  O     -365.850    -728.240    -243.074
  C     -365.452    -726.645    -241.392
  C     -365.023    -726.456    -240.148
  O     -362.905    -721.003    -237.951
  O     -363.966    -721.633    -240.192
  H     -363.494    -720.813    -240.436
  H     -362.431    -728.742    -236.771
  H     -365.605    -729.957    -241.254
  H     -365.634    -725.819    -242.091
  H     -364.851    -725.450    -239.782
  H     -364.557    -728.165    -237.318
  H     -362.188    -727.644    -238.790
  H     -362.681    -725.265    -238.882
  H     -363.399    -725.520    -235.901
  H     -365.070    -723.688    -236.672
  H     -363.365    -723.202    -236.404
  P     -360.257    -724.383    -238.267
  C     -359.186    -723.330    -236.187
  O     -358.954    -724.059    -237.384
  O     -360.857    -723.198    -238.946
  O     -359.701    -725.442    -239.347
  H     -359.837    -725.075    -240.254
  H     -358.257    -723.171    -235.681
  H     -359.847    -723.885    -235.554
  H     -359.629    -722.386    -236.425

 6  7  8  9  10  11  12  13  14  15  16  27  31  32  33  34  35 0
 6-311+G(2d,p)
 ****
 36  37 0
 6-311+G(2d,p)
 ****
 1  2  3  4  5  17  18  19  20  21  22  23  24  25 0
 3-21G
 ****
 26  28  29  30  38  39  40  41  42  43  44  45 0
 3-21G
 ****


