%nproc=1
%NoSave
%Mem=1900MB
#P OB98/GEN NMR

erre ene a

0 1
  C      169.175    -138.047     -73.250
  O      167.956    -137.323     -73.193
  P      168.014    -135.764     -72.819
  C      168.101    -136.263     -70.268
  O      168.718    -135.626     -71.381
  C      168.133    -135.355     -69.039
  O      169.507    -134.991     -68.736
  C      167.347    -134.055     -69.207
  O      166.768    -133.675     -67.950
  C      168.417    -133.030     -69.542
  O      167.996    -131.706     -69.226
  C      169.582    -133.553     -68.693
  N      173.565    -130.631     -67.605
  C      172.558    -131.087     -66.772
  N      172.571    -130.635     -65.500
  N      171.626    -131.924     -67.152
  C      171.732    -132.287     -68.461
  C      172.688    -131.914     -69.376
  C      173.712    -130.977     -68.939
  O      174.615    -130.516     -69.633
  N      172.487    -132.520     -70.591
  C      171.385    -133.225     -70.425
  N      170.871    -133.090     -69.163
  O      166.482    -135.414     -72.523
  O      168.570    -134.884     -73.893
  H      167.720    -131.708     -68.291
  H      166.110    -134.900     -73.265
  H      174.252    -129.978     -67.266
  H      170.908    -133.822     -71.191
  H      169.476    -133.250     -67.645
  H      168.654    -133.068     -70.612
  H      173.227    -129.938     -65.160
  H      166.561    -134.091     -69.971
  H      171.824    -130.918     -64.886
  H      167.758    -135.924     -68.174
  H      168.636    -137.191     -70.049
  H      167.068    -136.517     -70.519
  P      165.190    -133.358     -67.962
  C      165.564    -130.854     -67.329
  O      165.061    -131.788     -68.271
  O      164.781    -133.483     -66.422
  O      164.395    -134.262     -68.845
  H      163.833    -133.709     -66.341
  H      166.378    -130.291     -67.798
  H      165.940    -131.346     -66.421
  H      164.764    -130.166     -67.050
  H      168.973    -139.065     -73.510
  H      169.656    -138.011     -72.295
  H      169.815    -137.611     -73.988

 3  4  5  6  7  8  9  10  11  12  23  26  30  31 0
 6-311+G(2d,p)
 ****
 33  35  36  37  38 0
 6-311+G(2d,p)
 ****
 1  2  13  14  15  16  17  18  19  20  21  22  24  25 0
 3-21G
 ****
 27  28  29  32  34  39  40  41  42  43  44  45  46  47  48  49 0
 3-21G
 ****


