%nproc=1
%NoSave
%Mem=1900MB
#P OB98/GEN NMR

erre ene a

0 1
  C      -12.056      28.611      74.273
  O      -11.362      28.719      73.042
  P      -12.147      28.676      71.650
  C      -11.888      26.457      70.271
  O      -12.512      27.158      71.325
  C      -10.640      25.749      70.815
  O      -10.988      24.926      71.947
  C       -9.997      24.853      69.759
  O       -8.959      25.543      69.082
  C       -9.506      23.675      70.579
  O       -8.248      23.987      71.204
  C      -10.620      23.552      71.646
  N      -11.849      22.818      71.288
  C      -11.777      21.461      70.991
  O      -10.740      20.806      71.035
  N      -12.957      20.872      70.609
  C      -14.173      21.492      70.545
  O      -15.156      21.029      69.978
  C      -14.230      22.835      71.126
  C      -13.083      23.436      71.444
  O      -11.007      29.019      70.582
  O      -13.314      29.602      71.542
  H       -7.639      24.269      70.499
  H      -11.046      29.960      70.327
  H      -12.886      19.923      70.257
  H      -15.195      23.311      71.226
  H      -13.097      24.448      71.841
  H      -10.232      23.103      72.567
  H       -9.326      22.805      69.950
  H      -10.757      24.496      69.052
  H       -9.924      26.508      71.158
  H      -11.615      27.150      69.469
  H      -12.582      25.725      69.844
  P       -8.651      25.199      67.550
  C       -6.589      23.679      67.432
  O       -7.996      23.735      67.570
  O       -7.881      26.235      66.799
  O      -10.109      24.971      66.924
  H      -10.407      25.786      66.471
  H       -6.257      22.660      67.640
  H       -6.108      24.363      68.136
  H       -6.309      23.941      66.408
  H      -11.357      28.661      75.082
  H      -12.576      27.676      74.309
  H      -12.759      29.413      74.358

 3  4  5  6  7  8  9  10  11  12  13  23  28  29  30  31  32 0
 6-311+G(2d,p)
 ****
 33  34 0
 6-311+G(2d,p)
 ****
 1  2  14  15  16  17  18  19  20  21  22  24  25  26  27 0
 3-21G
 ****
 35  36  37  38  39  40  41  42  43  44  45 0
 3-21G
 ****


