%nproc=1
%NoSave
%Mem=1900MB
#P OB98/GEN NMR

erre ene a

0 1
  C       35.771    -200.488      27.621
  O       34.527    -201.114      27.881
  P       34.006    -201.124      29.401
  C       35.317    -203.310      29.904
  O       34.055    -202.653      29.888
  C       35.302    -204.519      30.841
  O       36.579    -205.198      30.752
  C       35.051    -204.169      32.309
  O       34.250    -205.207      32.876
  C       36.435    -204.223      32.926
  O       36.379    -204.475      34.330
  C       37.092    -205.336      32.093
  N       38.550    -205.258      32.118
  C       39.211    -206.089      33.028
  O       38.563    -206.783      33.812
  N       40.583    -206.074      33.061
  C       41.233    -205.225      32.327
  N       42.592    -205.251      32.393
  C       40.568    -204.246      31.447
  C       39.241    -204.332      31.376
  O       32.440    -200.837      29.244
  O       34.678    -200.132      30.294
  H       37.299    -204.484      34.675
  H       32.099    -200.336      30.010
  H       41.156    -203.534      30.884
  H       38.670    -203.669      30.738
  H       36.790    -206.325      32.464
  H       36.953    -203.269      32.767
  H       34.552    -203.204      32.437
  H       34.537    -205.219      30.482
  H       43.024    -205.922      33.016
  H       36.078    -202.610      30.262
  H       43.181    -204.627      31.860
  H       35.583    -203.611      28.887
  P       32.943    -204.773      33.699
  C       34.524    -205.125      35.691
  O       33.209    -205.282      35.196
  O       31.870    -205.849      33.181
  O       32.434    -203.381      33.536
  H       30.997    -205.652      33.567
  H       34.532    -205.382      36.754
  H       34.857    -204.091      35.574
  H       35.203    -205.801      35.162
  H       35.993    -200.555      26.576
  H       36.540    -200.977      28.181
  H       35.720    -199.459      27.909

 3  4  5  6  7  8  9  10  11  12  13  21  23  27  28  29  30  32 0
 6-311+G(2d,p)
 ****
 34  35 0
 6-311+G(2d,p)
 ****
 1  2  14  15  16  17  18  19  20  22  24  25  26 0
 3-21G
 ****
 31  33  36  37  38  39  40  41  42  43  44  45  46 0
 3-21G
 ****


