%nproc=1
%NoSave
%Mem=1900MB
#P OB98/GEN NMR

erre ene a

0 1
  C      -69.313      71.359    -186.269
  O      -68.771      70.062    -186.541
  P      -68.637      69.498    -188.037
  C      -66.614      67.932    -187.802
  O      -68.019      68.012    -188.026
  C      -66.248      67.770    -186.320
  O      -67.016      66.697    -185.710
  C      -64.768      67.459    -186.049
  O      -64.465      68.051    -184.781
  C      -64.774      65.943    -185.941
  O      -63.632      65.416    -185.283
  C      -66.085      65.721    -185.195
  N      -66.531      61.091    -183.048
  C      -66.126      62.279    -182.546
  N      -66.069      63.475    -183.168
  C      -66.529      63.382    -184.430
  C      -66.983      62.243    -185.075
  C      -66.963      61.048    -184.330
  N      -67.329      59.827    -184.851
  N      -67.345      62.528    -186.379
  C      -67.100      63.818    -186.514
  N      -66.609      64.380    -185.362
  O      -67.954      70.433    -188.985
  O      -70.151      69.260    -188.505
  H      -63.746      65.546    -184.324
  H      -70.268      69.619    -189.407
  H      -65.796      62.266    -181.510
  H      -67.239      64.387    -187.424
  H      -65.968      65.907    -184.120
  H      -64.802      65.511    -186.951
  H      -64.094      67.830    -186.826
  H      -66.541      68.695    -185.806
  H      -66.147      68.845    -188.192
  H      -67.191      59.015    -184.270
  H      -67.531      59.752    -185.837
  H      -66.215      67.086    -188.375
  P      -63.254      69.087    -184.604
  C      -64.311      70.680    -182.903
  O      -63.355      69.657    -183.112
  O      -63.158      70.130    -185.667
  O      -61.941      68.169    -184.563
  H      -61.157      68.715    -184.758
  H      -63.930      71.629    -183.301
  H      -64.488      70.790    -181.830
  H      -65.260      70.438    -183.396
  H      -69.310      71.532    -185.213
  H      -70.317      71.410    -186.636
  H      -68.717      72.104    -186.754

 3  4  5  6  7  8  9  10  11  12  22  25  29  30  31  32 0
 6-311+G(2d,p)
 ****
 33  36  37 0
 6-311+G(2d,p)
 ****
 1  2  13  14  15  16  17  18  19  20  21  23  24  26 0
 3-21G
 ****
 27  28  34  35  38  39  40  41  42  43  44  45  46  47  48 0
 3-21G
 ****


