%nproc=1
%NoSave
%Mem=1900MB
#P OB98/GEN NMR

erre ene a

0 1
  C       10.244      35.567      15.409
  O        9.745      36.571      14.524
  P        9.644      36.293      12.947
  C        7.680      34.674      12.686
  O        8.108      36.026      12.559
  C        6.177      34.486      12.449
  O        5.403      35.101      13.508
  C        5.658      35.056      11.125
  O        4.598      34.188      10.713
  C        5.117      36.409      11.546
  O        4.209      36.955      10.598
  C        4.519      36.070      12.917
  N        4.363      37.250      13.762
  C        3.100      37.473      14.311
  O        2.161      36.728      14.030
  N        2.916      38.565      15.124
  C        3.884      39.410      15.292
  N        3.635      40.485      16.088
  C        5.210      39.260      14.661
  C        5.379      38.162      13.926
  O       10.602      35.270      12.430
  O        9.944      37.725      12.288
  H        4.715      37.203       9.795
  H       10.366      37.596      11.417
  H        5.978      40.004      14.809
  H        6.318      37.958      13.426
  H        3.535      35.596      12.803
  H        5.945      37.118      11.659
  H        6.426      35.128      10.352
  H        5.972      33.409      12.493
  H        2.705      40.565      16.480
  H        7.930      34.325      13.693
  H        4.276      41.257      16.192
  H        8.247      34.055      11.982
  P        4.538      33.556       9.245
  C        6.709      32.320       8.692
  O        5.423      32.223       9.277
  O        4.878      34.502       8.140
  O        3.042      33.001       9.094
  H        2.844      32.859       8.151
  H        7.288      31.434       8.960
  H        7.234      33.210       9.053
  H        6.616      32.369       7.604
  H       10.234      35.939      16.412
  H       11.246      35.314      15.133
  H        9.626      34.696      15.345

 3  4  5  6  7  8  9  10  11  12  13  23  27  28  29  30  32 0
 6-311+G(2d,p)
 ****
 34  35 0
 6-311+G(2d,p)
 ****
 1  2  14  15  16  17  18  19  20  21  22  24  25  26 0
 3-21G
 ****
 31  33  36  37  38  39  40  41  42  43  44  45  46 0
 3-21G
 ****


