%nproc=1
%NoSave
%Mem=1900MB
#P OB98/GEN NMR

erre ene a

0 1
  C      256.897    1109.806     719.710
  O      257.302    1108.853     718.705
  P      258.832    1108.446     718.604
  C      259.799    1109.975     716.727
  O      259.720    1109.691     718.104
  C      261.124    1110.693     716.357
  O      262.263    1109.759     716.528
  C      261.212    1111.208     714.900
  O      262.011    1112.369     714.918
  C      261.955    1110.092     714.187
  O      262.535    1110.484     712.970
  C      262.986    1109.699     715.281
  N      263.576    1108.378     715.088
  C      264.479    1108.251     714.026
  O      264.748    1109.126     713.239
  N      265.085    1106.995     713.923
  C      264.806    1105.899     714.704
  O      265.344    1104.800     714.517
  C      263.837    1106.105     715.768
  C      263.256    1107.320     715.910
  O      258.851    1107.491     717.298
  O      259.398    1107.700     719.769
  H      263.145    1111.209     713.148
  H      259.351    1106.695     717.473
  H      265.746    1106.879     713.184
  H      263.592    1105.262     716.426
  H      262.549    1107.500     716.711
  H      263.768    1110.459     715.314
  H      261.254    1109.261     713.993
  H      260.208    1111.398     714.462
  H      261.280    1111.513     717.072
  H      258.952    1110.611     716.427
  H      259.727    1109.029     716.157
  P      261.322    1113.786     714.496
  C      261.465    1113.251     711.916
  O      260.645    1113.564     713.054
  O      262.591    1114.667     714.138
  O      260.449    1114.412     715.539
  H      263.275    1114.189     713.623
  H      262.252    1112.586     712.198
  H      261.875    1114.180     711.540
  H      260.832    1112.818     711.146
  H      255.842    1109.968     719.643
  H      257.411    1110.731     719.552
  H      257.138    1109.425     720.680

 3  4  5  6  7  8  9  10  11  12  13  23  28  29  30  31  32 0
 6-311+G(2d,p)
 ****
 33  34 0
 6-311+G(2d,p)
 ****
 1  2  14  15  16  17  18  19  20  21  22  24  25  26 0
 3-21G
 ****
 27  35  36  37  38  39  40  41  42  43  44  45 0
 3-21G
 ****


