%nproc=1
%NoSave
%Mem=1900MB
#P OB98/GEN NMR

erre ene a

0 1
  C     -416.540     816.242    -398.165
  O     -415.933     816.274    -396.887
  P     -416.071     814.958    -395.966
  C     -413.503     815.084    -395.563
  O     -414.796     814.984    -394.990
  C     -412.423     814.889    -394.487
  O     -412.300     816.073    -393.682
  C     -412.688     813.758    -393.513
  O     -412.326     812.496    -394.037
  C     -411.774     814.136    -392.365
  O     -410.422     813.763    -392.679
  C     -411.899     815.684    -392.344
  N     -412.730     816.613    -387.398
  C     -411.688     816.082    -388.028
  N     -411.549     815.846    -389.359
  C     -412.660     816.205    -390.019
  C     -413.811     816.751    -389.509
  C     -413.833     816.967    -388.124
  N     -414.900     817.543    -387.457
  N     -414.737     816.986    -390.496
  C     -414.138     816.618    -391.606
  N     -412.881     816.153    -391.391
  O     -415.716     813.781    -396.995
  O     -417.385     814.770    -395.333
  H     -410.357     812.798    -392.547
  H     -416.097     812.933    -396.677
  H     -410.850     815.789    -387.425
  H     -414.572     816.675    -392.601
  H     -410.949     816.178    -392.120
  H     -412.036     813.657    -391.417
  H     -413.737     813.770    -393.183
  H     -411.460     814.738    -395.003
  H     -413.373     816.071    -396.013
  H     -414.768     817.838    -386.512
  H     -415.622     817.995    -388.029
  H     -413.398     814.322    -396.341
  P     -413.473     811.660    -394.780
  C     -412.169     810.729    -396.835
  O     -412.692     810.469    -395.567
  O     -413.928     812.635    -395.950
  O     -414.589     811.258    -393.897
  H     -414.860     812.440    -396.218
  H     -411.427     809.954    -397.076
  H     -411.652     811.694    -396.873
  H     -412.960     810.711    -397.602
  H     -416.371     817.174    -398.664
  H     -417.592     816.081    -398.056
  H     -416.116     815.447    -398.742

 3  4  5  6  7  8  9  10  11  12  22  25  29  30  31  32 0
 6-311+G(2d,p)
 ****
 33  36  37 0
 6-311+G(2d,p)
 ****
 1  2  13  14  15  16  17  18  19  20  21  23  24  26 0
 3-21G
 ****
 27  28  34  35  38  39  40  41  42  43  44  45  46  47  48 0
 3-21G
 ****


