%nproc=1
%NoSave
%Mem=1900MB
#P OB98/GEN NMR

erre ene a

0 1
  C     -893.610     907.913    -899.100
  O     -892.420     908.598    -898.750
  H     -894.050     908.399    -900.000
  H     -894.330     907.975    -898.280
  H     -893.380     906.868    -899.330
  P     -891.700     908.136    -897.410
  C     -892.560     907.942    -894.940
  O     -892.780     908.437    -896.270
  C     -892.650     909.078    -893.920
  O     -893.830     909.881    -894.190
  C     -892.760     908.631    -892.470
  O     -891.510     908.185    -891.910
  C     -893.260     909.911    -891.850
  O     -892.170     910.860    -891.750
  C     -894.290     910.388    -892.880
  N     -895.660     909.891    -892.610
  C     -896.540     910.776    -892.000
  O     -896.180     911.918    -891.710
  N     -897.790     910.348    -891.690
  C     -898.170     909.140    -892.000
  N     -899.430     908.749    -891.640
  C     -897.280     908.162    -892.650
  C     -896.030     908.605    -892.920
  O     -890.580     909.267    -897.150
  O     -891.160     906.719    -897.410
  H     -892.520     911.657    -891.310
  H     -890.170     909.138    -896.270
  H     -897.630     907.143    -892.850
  H     -895.330     907.908    -893.410
  H     -894.330     911.467    -892.970
  H     -893.650     909.764    -890.860
  H     -893.520     907.862    -892.370
  H     -891.780     909.743    -894.080
  H     -900.000     909.411    -891.130
  H     -891.560     907.489    -894.900
  H     -899.770     907.803    -891.700
  H     -893.310     907.166    -894.710
  P     -891.580     907.159    -890.690
  C     -892.790     907.162    -888.380
  O     -892.670     907.723    -889.660
  O     -890.180     907.419    -889.930
  O     -891.780     905.716    -891.110
  H     -889.870     906.570    -889.550
  H     -893.565     907.666    -887.841
  H     -891.863     907.268    -887.856
  H     -893.033     906.124    -888.467

 6  7  8  9  10  11  12  13  14  15  16  26  30  31  32  33  35 0
 6-311+G(2d,p)
 ****
 37  38 0
 6-311+G(2d,p)
 ****
 1  2  3  4  5  17  18  19  20  21  22  23  24  25 0
 3-21G
 ****
 27  28  29  34  36  39  40  41  42  43  44  45  46 0
 3-21G
 ****


