%nproc=1
%NoSave
%Mem=1900MB
#P OB98/GEN NMR

erre ene a

0 1
  C     -726.631     708.861    -306.516
  O     -726.165     707.976    -305.520
  H     -726.623     709.890    -306.141
  H     -725.959     708.806    -307.380
  H     -727.637     708.585    -306.827
  P     -726.985     707.941    -304.140
  C     -725.161     709.359    -302.959
  O     -726.542     709.232    -303.291
  C     -724.959     710.544    -302.031
  O     -725.444     710.167    -300.702
  C     -723.486     711.009    -301.872
  O     -723.369     712.384    -302.244
  C     -723.190     710.877    -300.394
  O     -722.426     711.963    -299.877
  C     -724.578     710.829    -299.750
  N     -724.152     711.372    -294.710
  C     -724.513     712.242    -295.672
  N     -724.714     712.003    -296.988
  C     -724.520     710.703    -297.267
  C     -724.174     709.695    -296.391
  C     -723.963     710.067    -295.047
  N     -723.534     709.185    -294.080
  N     -724.049     708.482    -297.056
  C     -724.290     708.769    -298.320
  N     -724.556     710.101    -298.502
  O     -726.319     706.721    -303.345
  O     -728.461     707.762    -304.290
  H     -721.567     711.958    -300.353
  H     -727.022     706.138    -302.994
  H     -724.658     713.266    -295.349
  H     -724.247     708.070    -299.144
  H     -724.985     711.830    -299.567
  H     -722.645     709.946    -300.219
  H     -722.802     710.401    -302.472
  H     -725.585     711.378    -302.366
  H     -724.582     709.523    -303.874
  H     -723.308     709.570    -293.180
  H     -723.299     708.237    -294.350
  H     -724.815     708.427    -302.501
  P     -722.882     712.701    -303.754
  C     -720.363     712.486    -303.106
  O     -721.440     712.019    -303.932
  O     -722.562     714.257    -303.718
  O     -723.896     712.351    -304.798
  H     -722.676     714.649    -304.602
  H     -719.473     711.940    -303.339
  H     -720.613     712.338    -302.076
  H     -720.200     713.528    -303.288

 6  7  8  9  10  11  12  13  14  15  25  28  32  33  34  35 0
 6-311+G(2d,p)
 ****
 36  39  40 0
 6-311+G(2d,p)
 ****
 1  2  3  4  5  16  17  18  19  20  21  22  23  24 0
 3-21G
 ****
 26  27  29  30  31  37  38  41  42  43  44  45  46  47  48 0
 3-21G
 ****


