%nproc=1
%NoSave
%Mem=1900MB
#P OB98/GEN NMR

erre ene a

0 1
  C     -691.676     731.295     151.649
  O     -692.664     730.946     152.607
  P     -692.406     731.379     154.132
  C     -694.290     733.136     154.469
  O     -692.901     732.901     154.277
  C     -694.516     734.427     155.262
  O     -694.052     734.227     156.626
  C     -693.783     735.656     154.702
  O     -694.629     736.786     154.939
  C     -692.541     735.700     155.574
  O     -691.861     736.948     155.541
  C     -693.131     735.303     156.912
  N     -689.942     736.841     160.603
  C     -690.871     737.501     159.888
  N     -691.692     737.024     158.927
  C     -691.485     735.709     158.736
  C     -690.560     734.903     159.382
  C     -689.761     735.522     160.358
  N     -688.805     734.837     161.084
  N     -690.625     733.612     158.903
  C     -691.567     733.635     157.985
  N     -692.129     734.877     157.867
  O     -690.816     731.503     154.209
  O     -692.947     730.428     155.154
  H     -691.394     737.054     154.687
  H     -690.475     731.172     155.061
  H     -690.974     738.560     160.111
  H     -691.868     732.799     157.376
  H     -693.702     736.123     157.375
  H     -691.827     734.944     155.221
  H     -693.576     735.586     153.627
  H     -695.595     734.621     155.305
  H     -694.723     732.307     155.037
  H     -688.153     735.401     161.608
  H     -688.540     733.921     160.749
  H     -694.791     733.179     153.499
  P     -694.747     737.919     153.813
  C     -697.010     736.968     153.070
  O     -695.681     737.251     152.686
  O     -693.296     737.821     153.126
  O     -695.113     739.278     154.291
  H     -693.080     736.906     152.890
  H     -697.554     736.606     152.190
  H     -697.501     737.866     153.451
  H     -697.022     736.184     153.829
  H     -691.977     730.947     150.683
  H     -690.744     730.843     151.917
  H     -691.563     732.359     151.625

 3  4  5  6  7  8  9  10  11  12  22  25  29  30  31  32 0
 6-311+G(2d,p)
 ****
 33  36  37 0
 6-311+G(2d,p)
 ****
 1  2  13  14  15  16  17  18  19  20  21  23  24  26 0
 3-21G
 ****
 27  28  34  35  38  39  40  41  42  43  44  45  46  47  48 0
 3-21G
 ****


