%nproc=1
%NoSave
%Mem=1900MB
#P OB98/GEN NMR

erre ene a

0 1
  C      168.660    -315.360     307.842
  O      169.206    -314.030     307.780
  P      170.794    -313.844     307.559
  C      170.678    -312.154     305.570
  O      171.102    -312.406     306.900
  C      170.837    -310.663     305.203
  O      169.739    -309.896     305.769
  C      172.135    -310.017     305.712
  O      172.522    -309.024     304.758
  C      171.700    -309.355     307.012
  O      172.578    -308.339     307.454
  C      170.304    -308.858     306.593
  N      169.419    -308.529     307.716
  C      169.121    -307.187     307.938
  O      169.584    -306.247     307.291
  N      168.253    -306.936     308.977
  C      167.713    -307.874     309.821
  O      166.979    -307.576     310.751
  C      168.093    -309.268     309.558
  C      168.912    -309.529     308.533
  O      171.074    -314.844     306.336
  O      171.652    -314.197     308.728
  H      173.426    -308.771     307.678
  H      171.873    -315.378     306.525
  H      168.011    -305.971     309.148
  H      167.684    -310.033     310.200
  H      169.199    -310.549     308.312
  H      170.409    -307.977     305.954
  H      171.641    -310.107     307.804
  H      172.950    -310.743     305.852
  H      170.763    -310.574     304.113
  H      169.635    -312.443     305.458
  H      171.280    -312.769     304.886
  P      173.298    -309.485     303.428
  C      171.439    -308.810     301.711
  O      172.740    -308.596     302.215
  O      172.620    -310.916     303.180
  O      174.789    -309.552     303.572
  H      171.642    -310.892     303.275
  H      170.716    -309.003     302.514
  H      171.450    -309.666     301.026
  H      171.130    -307.922     301.158
  H      167.602    -315.305     307.991
  H      169.108    -315.892     308.656
  H      168.865    -315.873     306.925

 3  4  5  6  7  8  9  10  11  12  13  23  28  29  30  31  32 0
 6-311+G(2d,p)
 ****
 33  34 0
 6-311+G(2d,p)
 ****
 1  2  14  15  16  17  18  19  20  21  22  24  25  26 0
 3-21G
 ****
 27  35  36  37  38  39  40  41  42  43  44  45 0
 3-21G
 ****


