%nproc=1
%NoSave
%Mem=1900MB
#P OB98/GEN NMR

erre ene a

0 1
  C     -463.064     131.599    -893.510
  O     -463.438     132.787    -894.194
  H     -461.978     131.552    -893.454
  H     -463.428     130.727    -894.063
  H     -463.474     131.597    -892.500
  P     -464.996     133.134    -894.241
  C     -464.566     135.121    -892.573
  O     -465.154     134.666    -893.790
  C     -463.522     136.188    -892.857
  O     -462.346     135.622    -893.491
  C     -463.979     137.260    -893.841
  O     -464.946     138.127    -893.288
  C     -462.660     137.926    -894.169
  O     -462.257     138.833    -893.123
  C     -461.703     136.705    -894.220
  N     -461.369     136.311    -895.585
  C     -460.321     137.024    -896.170
  O     -459.741     137.923    -895.556
  N     -459.987     136.725    -897.480
  C     -460.614     135.791    -898.110
  N     -460.242     135.555    -899.390
  C     -461.704     134.996    -897.500
  C     -462.028     135.305    -896.240
  O     -465.578     132.332    -892.982
  O     -465.687     132.836    -895.528
  H     -461.435     139.268    -893.441
  H     -465.110     132.524    -892.153
  H     -462.192     134.212    -898.070
  H     -462.814     134.781    -895.730
  H     -460.767     136.923    -893.684
  H     -462.703     138.503    -895.090
  H     -464.349     136.784    -894.760
  H     -463.215     136.634    -891.907
  H     -459.498     136.133    -899.780
  H     -464.120     134.278    -892.018
  H     -460.683     134.875    -900.000
  H     -465.367     135.527    -891.945
  P     -465.778     139.129    -894.227
  C     -468.021     137.870    -894.315
  O     -467.327     138.994    -893.792
  O     -465.533     138.964    -895.690
  O     -465.388     140.579    -893.654
  H     -465.618     140.712    -892.717
  H     -469.032     137.880    -893.965
  H     -467.540     136.971    -893.990
  H     -468.014     137.912    -895.384

 6  7  8  9  10  11  12  13  14  15  16  26  30  31  32  33  35 0
 6-311+G(2d,p)
 ****
 37  38 0
 6-311+G(2d,p)
 ****
 1  2  3  4  5  17  18  19  20  21  22  23  24  25 0
 3-21G
 ****
 27  28  29  34  36  39  40  41  42  43  44  45  46 0
 3-21G
 ****


