%nproc=1
%NoSave
%Mem=1900MB
#P OB98/GEN NMR

erre ene a

0 1
  C      328.574     -18.573    -448.445
  O      327.406     -18.376    -447.675
  H      328.937     -19.597    -448.316
  H      328.328     -18.416    -449.500
  H      329.353     -17.859    -448.154
  P      327.579     -18.386    -446.080
  C      326.521     -20.761    -445.994
  O      327.629     -19.938    -445.656
  C      326.704     -22.168    -445.421
  O      327.896     -22.763    -446.013
  C      326.884     -22.190    -443.893
  O      326.200     -23.327    -443.364
  C      328.386     -22.361    -443.722
  O      328.722     -22.956    -442.474
  C      328.736     -23.211    -444.937
  N      333.536     -24.137    -443.426
  C      332.338     -24.471    -442.895
  N      331.103     -24.192    -443.366
  C      331.180     -23.528    -444.532
  C      332.325     -23.108    -445.193
  C      333.550     -23.434    -444.585
  N      334.776     -23.059    -445.095
  N      332.002     -22.418    -446.346
  C      330.676     -22.421    -446.378
  N      330.139     -23.076    -445.300
  O      326.140     -17.901    -445.571
  O      328.681     -17.534    -445.541
  H      328.051     -23.640    -442.261
  H      326.076     -16.930    -445.647
  H      332.376     -25.042    -441.966
  H      330.067     -21.965    -447.147
  H      328.553     -24.281    -444.766
  H      328.876     -21.378    -443.778
  H      326.510     -21.281    -443.413
  H      325.851     -22.788    -445.731
  H      326.438     -20.813    -447.086
  H      335.601     -23.283    -444.566
  H      334.806     -22.481    -445.926
  H      325.602     -20.315    -445.589
  P      324.624     -23.422    -443.656
  C      323.803     -22.613    -441.329
  O      323.867     -22.349    -442.724
  O      324.214     -24.834    -443.027
  O      324.275     -23.354    -445.104
  H      323.689     -25.349    -443.668
  H      323.275     -21.821    -440.840
  H      324.795     -22.679    -440.933
  H      323.291     -23.538    -441.164

 6  7  8  9  10  11  12  13  14  15  25  28  32  33  34  35 0
 6-311+G(2d,p)
 ****
 36  39  40 0
 6-311+G(2d,p)
 ****
 1  2  3  4  5  16  17  18  19  20  21  22  23  24 0
 3-21G
 ****
 26  27  29  30  31  37  38  41  42  43  44  45  46  47 0
 3-21G
 ****
 48 0
 3-21G
 ****


