%nproc=1
%NoSave
%Mem=1900MB
#P OB98/GEN NMR

erre ene a

0 1
  C      198.178      94.387     -51.677
  O      199.139      94.858     -52.602
  H      198.309      94.925     -50.734
  H      198.315      93.317     -51.497
  H      197.171      94.577     -52.056
  P      199.139      94.166     -54.050
  C      201.160      92.681     -53.457
  O      199.779      92.713     -53.795
  C      201.888      91.619     -54.283
  O      201.564      90.313     -53.744
  C      201.494      91.623     -55.762
  O      202.647      91.350     -56.556
  C      200.515      90.466     -55.872
  O      200.458      89.926     -57.190
  C      201.052      89.503     -54.816
  N      199.105      84.804     -55.211
  C      200.221      85.365     -55.721
  N      200.676      86.625     -55.552
  C      199.869      87.313     -54.723
  C      198.698      86.878     -54.131
  C      198.311      85.554     -54.410
  N      197.163      84.983     -53.914
  N      198.128      87.890     -53.384
  C      198.951      88.915     -53.511
  N      200.009      88.618     -54.327
  O      199.768      94.957     -55.146
  O      197.589      93.828     -54.250
  H      199.729      89.273     -57.224
  H      197.197      93.454     -53.438
  H      200.827      84.721     -56.354
  H      198.818      89.889     -53.052
  H      201.864      88.871     -55.197
  H      199.507      90.811     -55.606
  H      201.045      92.567     -56.073
  H      202.968      91.754     -54.158
  H      201.282      92.461     -52.391
  H      196.969      84.023     -54.151
  H      196.568      85.521     -53.300
  H      201.580      93.670     -53.658
  P      203.596      92.574     -56.970
  C      201.961      93.784     -58.561
  O      202.672      93.839     -57.327
  O      204.669      92.262     -57.958
  O      204.230      93.008     -55.560
  H      205.161      93.271     -55.701
  H      201.387      94.679     -58.682
  H      201.306      92.938     -58.558
  H      202.656      93.694     -59.369

 6  7  8  9  10  11  12  13  14  15  25  28  32  33  34  35 0
 6-311+G(2d,p)
 ****
 36  39  40 0
 6-311+G(2d,p)
 ****
 1  2  3  4  5  16  17  18  19  20  21  22  23  24 0
 3-21G
 ****
 26  27  29  30  31  37  38  41  42  43  44  45  46  47 0
 3-21G
 ****
 48 0
 3-21G
 ****


