%nproc=1
%NoSave
%Mem=1900MB
#P OB98/GEN NMR

erre ene a

0 1
  C      112.663    -203.460     336.786
  O      111.474    -203.692     337.565
  P      111.616    -203.992     339.140
  C      110.656    -201.664     339.855
  O      111.729    -202.596     339.927
  C      111.107    -200.304     340.394
  O      112.188    -199.771     339.595
  C      110.030    -199.229     340.371
  O      109.095    -199.398     341.422
  C      110.864    -197.959     340.495
  O      111.197    -197.696     341.870
  C      112.128    -198.332     339.689
  N      112.161    -197.705     338.371
  C      112.879    -196.519     338.269
  O      113.419    -195.972     339.233
  N      112.929    -195.956     337.022
  C      112.289    -196.413     335.908
  O      112.353    -195.855     334.819
  C      111.475    -197.629     336.095
  C      111.445    -198.202     337.302
  O      113.118    -204.546     339.236
  O      110.646    -204.985     339.700
  H      110.356    -197.682     342.363
  H      113.194    -205.156     339.997
  H      113.473    -195.109     336.922
  H      110.932    -198.009     335.243
  H      110.849    -199.099     337.453
  H      113.026    -198.030     340.241
  H      110.341    -197.078     340.115
  H      109.523    -199.232     339.396
  H      111.483    -200.449     341.415
  H      109.821    -202.030     340.461
  H      110.325    -201.581     338.815
  P      107.880    -200.416     341.157
  C      108.924    -202.068     342.892
  O      108.430    -201.856     341.584
  O      107.848    -200.440     339.554
  O      106.599    -199.981     341.796
  H      108.740    -200.340     339.169
  H      108.388    -201.462     343.628
  H      109.990    -201.816     342.921
  H      108.804    -203.124     343.142
  H      112.392    -203.278     335.767
  H      113.297    -204.320     336.838
  H      113.183    -202.609     337.174

 3  4  5  6  7  8  9  10  11  12  13  23  28  29  30  31  32 0
 6-311+G(2d,p)
 ****
 33  34 0
 6-311+G(2d,p)
 ****
 1  2  14  15  16  17  18  19  20  21  22  24  25  26 0
 3-21G
 ****
 27  35  36  37  38  39  40  41  42  43  44  45 0
 3-21G
 ****


