%nproc=1
%NoSave
%Mem=1900MB
#P OB98/GEN NMR

erre ene a

0 1
  C       93.643     -94.647     -32.358
  O       94.918     -95.052     -32.818
  P       95.280     -96.607     -32.932
  C       95.638     -98.541     -31.278
  O       95.706     -97.133     -31.478
  C       96.520     -98.955     -30.102
  O       97.907     -98.641     -30.363
  C       96.193     -98.241     -28.800
  O       94.988     -98.711     -28.224
  C       97.450     -98.528     -27.987
  O       97.399     -99.842     -27.414
  C       98.544     -98.457     -29.075
  N       99.296     -97.213     -29.026
  C      100.566     -97.285     -28.442
  O      100.959     -98.334     -27.933
  N      101.351     -96.158     -28.444
  C      100.866     -95.035     -28.873
  N      101.709     -93.969     -28.906
  C       99.475     -94.885     -29.346
  C       98.761     -96.008     -29.417
  O       96.229     -96.961     -34.028
  O       93.862     -97.319     -33.161
  H       93.932     -97.919     -33.929
  H       98.284    -100.013     -27.034
  H       99.098     -93.913     -29.629
  H       97.736     -95.996     -29.773
  H       99.240     -99.296     -28.965
  H       97.584     -97.819     -27.163
  H       96.114     -97.162     -28.981
  H       96.431    -100.042     -29.977
  H      102.661     -94.115     -28.592
  H       95.980     -99.040     -32.188
  H      101.546     -93.163     -29.505
  H       94.597     -98.828     -31.098
  P       94.017     -97.610     -27.577
  C       94.142     -95.935     -25.606
  O       94.798     -96.943     -26.349
  O       92.881     -98.492     -26.870
  O       93.427     -96.648     -28.555
  H       92.019     -98.042     -26.951
  H       94.635     -95.838     -24.636
  H       93.089     -96.179     -25.444
  H       94.220     -94.982     -26.137
  H       93.589     -93.578     -32.351
  H       93.487     -95.019     -31.367
  H       92.889     -95.038     -33.008

 3  4  5  6  7  8  9  10  11  12  13  24  27  28  29  30  32 0
 6-311+G(2d,p)
 ****
 34  35 0
 6-311+G(2d,p)
 ****
 1  2  14  15  16  17  18  19  20  21  22  23  25  26 0
 3-21G
 ****
 31  33  36  37  38  39  40  41  42  43  44  45  46 0
 3-21G
 ****


