%nproc=1
%NoSave
%Mem=1900MB
#P OB98/GEN NMR

erre ene a

0 1
  C       14.640      99.586       8.885
  O       14.585      99.178       7.533
  H       15.344     100.418       8.973
  H       14.988      98.763       9.516
  H       13.654      99.917       9.219
  P       13.679      97.889       7.215
  C       15.722      96.271       7.350
  O       14.485      96.685       7.909
  C       15.829      94.751       7.407
  O       15.531      94.269       8.734
  C       14.859      94.024       6.482
  O       15.287      94.012       5.131
  C       14.885      92.637       7.096
  O       16.104      91.967       6.725
  C       14.877      92.978       8.604
  N       13.530      93.024       9.175
  C       12.885      91.796       9.363
  O       13.436      90.744       9.046
  N       11.609      91.791       9.876
  C       11.032      92.910      10.186
  N        9.765      92.847      10.676
  C       11.682      94.223      10.020
  C       12.913      94.207       9.516
  O       13.934      97.625       5.657
  O       12.241      97.989       7.595
  H       16.069      91.077       7.119
  H       13.515      96.772       5.390
  H       11.156      95.130      10.283
  H       13.452      95.136       9.364
  H       15.472      92.253       9.173
  H       14.058      92.007       6.767
  H       13.843      94.425       6.567
  H       16.870      94.478       7.186
  H        9.323      91.938      10.720
  H       16.532      96.730       7.927
  H        9.176      93.664      10.773
  H       15.793      96.602       6.310
  P       14.183      94.286       3.997
  C       14.070      91.744       3.474
  O       13.355      92.924       3.811
  O       15.054      94.370       2.659
  O       13.355      95.515       4.206
  H       14.714      95.062       2.060
  H       13.386      90.926       3.385
  H       14.785      91.529       4.240
  H       14.577      91.888       2.543

 6  7  8  9  10  11  12  13  14  15  16  26  30  31  32  33  35 0
 6-311+G(2d,p)
 ****
 37  38 0
 6-311+G(2d,p)
 ****
 1  2  3  4  5  17  18  19  20  21  22  23  24  25 0
 3-21G
 ****
 27  28  29  34  36  39  40  41  42  43  44  45  46 0
 3-21G
 ****


