%nproc=1
%NoSave
%Mem=1900MB
#P OB98/GEN NMR

erre ene a

0 1
  C       66.344     276.559     -85.235
  O       66.480     276.080     -86.555
  H       66.946     275.933     -84.571
  H       65.300     276.506     -84.914
  H       66.703     277.590     -85.161
  P       65.686     276.833     -87.731
  C       63.601     275.359     -87.278
  O       64.137     276.674     -87.324
  C       62.242     275.367     -86.585
  O       62.361     275.731     -85.196
  C       61.238     276.362     -87.156
  O       60.695     275.976     -88.410
  C       60.198     276.352     -86.050
  O       59.413     275.147     -86.134
  C       61.104     276.348     -84.794
  N       61.333     277.691     -84.262
  C       60.399     278.167     -83.335
  O       59.432     277.481     -83.010
  N       60.557     279.433     -82.825
  C       61.554     280.168     -83.220
  N       61.658     281.414     -82.686
  C       62.551     279.713     -84.207
  C       62.384     278.476     -84.684
  O       66.030     276.417     -89.125
  O       65.933     278.388     -87.448
  H       58.867     275.109     -85.333
  H       65.472     278.901     -88.156
  H       63.343     280.375     -84.531
  H       63.074     278.077     -85.414
  H       60.673     275.720     -84.004
  H       59.502     277.189     -86.098
  H       61.672     277.369     -87.211
  H       61.851     274.340     -86.617
  H       60.962     281.697     -82.010
  H       64.309     274.719     -86.741
  H       62.356     282.083     -82.992
  H       63.469     274.972     -88.291
  P       60.588     277.121     -89.538
  C       58.336     277.965     -88.515
  O       59.663     278.276     -88.919
  O       59.670     276.438     -90.652
  O       61.894     277.602     -90.076
  H       60.217     276.079     -91.377
  H       57.865     278.845     -88.128
  H       58.362     277.211     -87.756
  H       57.782     277.605     -89.357

 6  7  8  9  10  11  12  13  14  15  16  26  30  31  32  33  35 0
 6-311+G(2d,p)
 ****
 37  38 0
 6-311+G(2d,p)
 ****
 1  2  3  4  5  17  18  19  20  21  22  23  24  25 0
 3-21G
 ****
 27  28  29  34  36  39  40  41  42  43  44  45  46 0
 3-21G
 ****


