%nproc=1
%NoSave
%Mem=1900MB
#P OB98/GEN NMR

erre ene a

0 1
  C       -0.815      35.475      12.543
  O       -1.744      34.749      11.766
  H        0.191      35.270      12.169
  H       -0.865      35.172      13.592
  H       -1.007      36.547      12.455
  P       -3.284      34.746      12.205
  C       -3.589      32.353      13.107
  O       -3.404      33.723      13.436
  C       -2.879      31.452      14.118
  O       -3.543      31.586      15.403
  C       -2.886      29.969      13.729
  O       -1.636      29.397      14.119
  C       -4.013      29.412      14.573
  O       -3.866      28.020      14.783
  C       -3.932      30.271      15.838
  N       -5.208      30.284      16.551
  C       -5.611      29.079      17.136
  O       -4.896      28.079      17.049
  N       -6.836      29.012      17.745
  C       -7.621      30.042      17.726
  N       -8.839      29.896      18.313
  C       -7.252      31.326      17.097
  C       -6.044      31.378      16.536
  O       -4.279      34.529      11.115
  O       -3.480      36.175      12.901
  H       -4.653      27.679      15.259
  H       -3.767      36.832      12.240
  H       -7.944      32.154      17.102
  H       -5.692      32.276      16.042
  H       -3.155      29.896      16.516
  H       -4.971      29.576      14.064
  H       -3.056      29.808      12.661
  H       -1.854      31.819      14.252
  H       -9.058      28.990      18.709
  H       -3.168      32.188      12.110
  H       -9.549      30.612      18.324
  H       -4.658      32.119      13.081
  P       -0.471      29.167      13.039
  C       -1.351      26.895      12.257
  O       -1.026      28.223      11.862
  O        0.838      28.736      13.614
  O       -0.326      30.595      12.324
  H        0.596      30.715      12.028
  H       -1.709      26.348      11.410
  H       -2.110      26.923      13.011
  H       -0.478      26.415      12.648

 6  7  8  9  10  11  12  13  14  15  16  26  30  31  32  33  35 0
 6-311+G(2d,p)
 ****
 37  38 0
 6-311+G(2d,p)
 ****
 1  2  3  4  5  17  18  19  20  21  22  23  24  25 0
 3-21G
 ****
 27  28  29  34  36  39  40  41  42  43  44  45  46 0
 3-21G
 ****


