%nproc=1
%NoSave
%Mem=1900MB
#P OB98/GEN NMR

erre ene a

0 1
  C     -264.649     580.259    -168.798
  O     -265.222     579.633    -169.930
  H     -264.793     581.339    -168.884
  H     -263.577     580.049    -168.750
  H     -265.141     579.909    -167.887
  P     -265.085     578.038    -170.014
  C     -267.243     577.871    -168.594
  O     -265.878     577.500    -168.726
  C     -268.141     576.638    -168.646
  O     -267.694     575.658    -167.692
  C     -269.605     576.912    -168.327
  O     -270.285     577.380    -169.479
  C     -270.078     575.522    -167.930
  O     -270.356     574.748    -169.114
  C     -268.855     574.939    -167.200
  N     -269.956     572.499    -162.820
  C     -270.201     572.181    -164.109
  N     -269.932     572.901    -165.220
  C     -269.332     574.061    -164.901
  C     -269.019     574.521    -163.632
  C     -269.350     573.682    -162.555
  N     -269.100     574.010    -161.239
  N     -268.412     575.760    -163.693
  C     -268.305     576.011    -164.979
  N     -268.881     575.032    -165.754
  O     -263.700     577.515    -170.200
  O     -266.101     577.707    -171.208
  H     -270.944     575.291    -169.673
  H     -266.904     578.252    -171.134
  H     -270.684     571.222    -164.270
  H     -267.808     576.876    -165.406
  H     -268.707     573.879    -167.440
  H     -270.997     575.542    -167.341
  H     -269.715     577.587    -167.471
  H     -268.036     576.189    -169.645
  H     -267.524     578.568    -169.393
  H     -269.540     573.446    -160.532
  H     -268.768     574.944    -161.043
  H     -267.357     578.385    -167.635
  P     -271.277     578.640    -169.400
  C     -270.039     579.631    -171.424
  O     -270.469     579.844    -170.086
  O     -271.823     578.911    -168.044
  O     -272.415     578.313    -170.475
  H     -273.193     578.880    -170.318
  H     -269.515     580.496    -171.772
  H     -270.890     579.454    -172.048
  H     -269.388     578.782    -171.459

 6  7  8  9  10  11  12  13  14  15  25  28  32  33  34  35 0
 6-311+G(2d,p)
 ****
 36  39  40 0
 6-311+G(2d,p)
 ****
 1  2  3  4  5  16  17  18  19  20  21  22  23  24 0
 3-21G
 ****
 26  27  29  30  31  37  38  41  42  43  44  45  46  47 0
 3-21G
 ****
 48 0
 3-21G
 ****


