%nproc=1
%NoSave
%Mem=1900MB
#P OB98/GEN NMR

erre ene a

0 1
  C      -90.928     -39.434     465.966
  O      -92.350     -39.386     465.835
  P      -93.138     -38.564     466.968
  C      -93.828     -36.086     467.320
  O      -93.424     -37.086     466.401
  C      -94.285     -34.823     466.582
  O      -93.202     -34.183     465.875
  C      -95.362     -35.088     465.539
  O      -96.624     -35.213     466.167
  C      -95.246     -33.853     464.651
  O      -95.999     -32.747     465.200
  C      -93.739     -33.547     464.685
  N      -91.340     -32.072     460.469
  C      -92.117     -31.337     461.350
  N      -92.248     -30.023     461.083
  N      -92.703     -31.854     462.398
  C      -92.482     -33.185     462.543
  C      -91.717     -34.008     461.754
  C      -91.074     -33.426     460.596
  O      -90.362     -34.027     459.794
  N      -91.679     -35.288     462.250
  C      -92.526     -35.257     463.264
  N      -92.991     -33.990     463.523
  O      -92.028     -38.339     468.099
  O      -94.332     -39.283     467.506
  H      -95.559     -32.437     466.013
  H      -92.240     -38.874     468.886
  H      -90.919     -31.625     459.674
  H      -92.813     -36.114     463.857
  H      -93.554     -32.471     464.781
  H      -95.652     -34.031     463.653
  H      -91.823     -29.559     460.298
  H      -95.113     -35.992     464.962
  H      -92.802     -29.467     461.723
  H      -94.663     -34.121     467.335
  H      -93.006     -35.837     467.995
  H      -94.636     -36.483     467.944
  P      -97.500     -36.517     465.838
  C      -97.211     -39.068     466.242
  O      -96.824     -37.754     466.600
  O      -97.177     -36.790     464.289
  O      -98.965     -36.353     466.063
  H      -98.005     -37.003     463.818
  H      -96.371     -39.742     466.413
  H      -97.512     -39.128     465.190
  H      -98.054     -39.376     466.875
  H      -90.515     -40.004     465.161
  H      -90.671     -39.894     466.897
  H      -90.533     -38.440     465.938

 3  4  5  6  7  8  9  10  11  12  23  26  30  31 0
 6-311+G(2d,p)
 ****
 33  35  36  37  38 0
 6-311+G(2d,p)
 ****
 1  2  13  14  15  16  17  18  19  20  21  22  24  25 0
 3-21G
 ****
 27  28  29  32  34  39  40  41  42  43  44  45  46  47  48  49 0
 3-21G
 ****


