%nproc=1
%NoSave
%Mem=1900MB
#P OB98/GEN NMR

erre ene a

0 1
  C     -891.200    -402.707    -845.796
  O     -891.810    -402.550    -847.063
  H     -890.270    -402.141    -845.784
  H     -890.970    -403.763    -845.621
  H     -891.850    -402.331    -844.997
  P     -893.300    -403.117    -847.280
  C     -894.830    -401.068    -846.938
  O     -894.270    -402.238    -846.350
  C     -895.890    -400.473    -846.012
  O     -897.030    -401.356    -845.943
  C     -895.420    -400.280    -844.573
  O     -894.580    -399.151    -844.459
  C     -896.760    -400.159    -843.859
  O     -897.300    -398.834    -844.001
  C     -897.620    -401.187    -844.630
  N     -897.730    -402.476    -843.943
  C     -898.990    -402.819    -843.466
  O     -899.970    -402.076    -843.567
  N     -899.090    -404.046    -842.852
  C     -898.060    -404.888    -842.601
  O     -898.190    -405.953    -841.997
  C     -896.740    -404.461    -843.099
  C     -896.640    -403.301    -843.737
  O     -893.460    -404.593    -847.135
  O     -893.670    -402.624    -848.756
  H     -898.260    -398.906    -843.850
  H     -893.560    -403.364    -849.387
  H     -900.000    -404.291    -842.493
  H     -895.890    -405.122    -842.911
  H     -895.680    -402.963    -844.106
  H     -898.630    -400.798    -844.790
  H     -896.680    -400.349    -842.787
  H     -894.910    -401.185    -844.217
  H     -896.230    -399.524    -846.446
  H     -895.290    -401.331    -847.896
  H     -894.020    -400.344    -847.115
  P     -893.670    -398.938    -843.166
  C     -891.320    -399.343    -844.123
  O     -892.370    -399.872    -843.318
  O     -894.380    -399.064    -841.865
  O     -893.070    -397.455    -843.353
  H     -893.510    -396.841    -842.739
  H     -890.510    -400.041    -844.156
  H     -890.979    -398.420    -843.703
  H     -891.683    -399.171    -845.115

 6  7  8  9  10  11  12  13  14  15  16  26  31  32  33  34  35 0
 6-311+G(2d,p)
 ****
 36  37 0
 6-311+G(2d,p)
 ****
 1  2  3  4  5  17  18  19  20  21  22  23  24  25 0
 3-21G
 ****
 27  28  29  30  38  39  40  41  42  43  44  45 0
 3-21G
 ****


