%nproc=1
%NoSave
%Mem=1900MB
#P OB98/GEN NMR

erre ene a

0 1
  C      -37.147    -100.095    -158.826
  O      -36.025     -99.844    -159.646
  H      -36.823    -100.670    -157.955
  H      -37.888    -100.682    -159.375
  H      -37.595     -99.159    -158.481
  P      -36.188     -98.861    -160.901
  C      -36.532    -100.982    -162.334
  O      -36.992     -99.674    -162.023
  C      -37.583    -101.749    -163.146
  O      -38.097    -100.867    -164.190
  C      -37.041    -103.011    -163.846
  O      -38.130    -103.942    -163.934
  C      -36.682    -102.449    -165.210
  O      -36.409    -103.453    -166.155
  C      -37.910    -101.559    -165.444
  N      -37.792    -100.608    -166.543
  C      -37.547    -101.117    -167.814
  O      -37.424    -102.312    -168.080
  N      -37.435    -100.186    -168.816
  C      -37.556     -98.836    -168.675
  O      -37.478     -98.053    -169.613
  C      -37.808     -98.359    -167.307
  C      -37.919     -99.251    -166.320
  O      -34.938     -98.198    -161.373
  O      -37.269     -97.788    -160.400
  H      -36.816     -96.963    -160.145
  H      -35.567    -103.897    -165.914
  H      -37.260    -100.537    -169.744
  H      -37.899     -97.291    -167.158
  H      -38.115     -98.930    -165.303
  H      -38.797    -102.180    -165.603
  H      -35.771    -101.849    -165.138
  H      -36.208    -103.474    -163.312
  H      -38.428    -101.992    -162.491
  H      -36.337    -101.508    -161.393
  H      -35.599    -100.908    -162.901
  P      -38.209    -105.294    -163.072
  C      -37.495    -106.866    -165.001
  O      -37.184    -106.352    -163.712
  O      -39.594    -105.826    -162.906
  O      -37.555    -104.932    -161.656
  H      -37.921    -105.519    -160.968
  H      -36.734    -107.554    -165.304
  H      -37.547    -106.060    -165.703
  H      -38.438    -107.370    -164.966

 6  7  8  9  10  11  12  13  14  15  16  27  31  32  33  34  35 0
 6-311+G(2d,p)
 ****
 36  37 0
 6-311+G(2d,p)
 ****
 1  2  3  4  5  17  18  19  20  21  22  23  24  25 0
 3-21G
 ****
 26  28  29  30  38  39  40  41  42  43  44  45 0
 3-21G
 ****


