%nproc=1
%NoSave
%Mem=1900MB
#P OB98/GEN NMR

erre ene a

0 1
  C     -246.415    -105.098    -199.859
  O     -246.516    -106.339    -199.193
  H     -247.092    -104.387    -199.376
  H     -246.713    -105.205    -200.905
  H     -245.398    -104.704    -199.801
  P     -245.503    -107.513    -199.595
  C     -244.248    -107.807    -197.363
  O     -244.188    -107.323    -198.700
  C     -242.851    -108.197    -196.889
  O     -242.383    -109.350    -197.625
  C     -241.800    -107.117    -197.116
  O     -241.919    -106.070    -196.175
  C     -240.524    -107.935    -197.014
  O     -240.148    -108.141    -195.647
  C     -240.941    -109.270    -197.671
  N     -240.450    -109.382    -199.044
  C     -239.463    -110.338    -199.269
  O     -239.014    -111.069    -198.389
  N     -238.957    -110.384    -200.541
  C     -239.235    -109.497    -201.538
  O     -238.582    -109.423    -202.574
  C     -240.327    -108.551    -201.266
  C     -240.868    -108.528    -200.045
  O     -245.259    -107.682    -201.057
  O     -246.177    -108.822    -198.962
  H     -246.626    -109.325    -199.668
  H     -240.919    -108.570    -195.220
  H     -238.210    -111.047    -200.698
  H     -240.626    -107.877    -202.058
  H     -241.652    -107.815    -199.808
  H     -240.557    -110.119    -197.093
  H     -239.691    -107.442    -197.518
  H     -241.889    -106.724    -198.135
  H     -242.909    -108.470    -195.828
  H     -244.900    -108.687    -197.339
  H     -244.673    -107.029    -196.722
  P     -241.209    -104.660    -196.442
  C     -243.091    -103.197    -197.402
  O     -241.927    -103.963    -197.696
  O     -239.719    -104.700    -196.519
  O     -241.685    -103.748    -195.212
  H     -240.898    -103.326    -194.811
  H     -243.483    -102.782    -198.307
  H     -242.837    -102.406    -196.728
  H     -243.828    -103.827    -196.950

 6  7  8  9  10  11  12  13  14  15  16  27  31  32  33  34  35 0
 6-311+G(2d,p)
 ****
 36  37 0
 6-311+G(2d,p)
 ****
 1  2  3  4  5  17  18  19  20  21  22  23  24  25 0
 3-21G
 ****
 26  28  29  30  38  39  40  41  42  43  44  45 0
 3-21G
 ****


