%nproc=1
%NoSave
%Mem=1900MB
#P OB98/GEN NMR

erre ene a

0 1
  C       -6.408    -266.734      40.217
  O       -7.802    -266.984      39.961
  P       -8.220    -268.288      39.120
  C       -8.072    -270.656      40.228
  O       -8.747    -269.408      40.141
  C       -9.003    -271.721      40.807
  O       -9.415    -271.363      42.146
  C      -10.301    -271.913      40.032
  O      -10.101    -272.658      38.843
  C      -11.165    -272.632      41.064
  O      -10.882    -274.041      41.075
  C      -10.705    -271.974      42.379
  N      -11.669    -271.003      42.891
  C      -12.819    -271.525      43.480
  O      -13.065    -272.727      43.526
  N      -13.701    -270.607      43.982
  C      -13.579    -269.248      43.896
  O      -14.415    -268.475      44.350
  C      -12.385    -268.757      43.194
  C      -11.503    -269.643      42.728
  O       -6.794    -268.879      38.690
  O       -9.073    -268.039      37.920
  H      -11.090    -274.378      40.182
  H       -6.884    -269.375      37.853
  H      -14.524    -270.962      44.439
  H      -12.263    -267.687      43.086
  H      -10.612    -269.296      42.205
  H      -10.542    -272.739      43.147
  H      -12.234    -272.520      40.862
  H      -10.746    -270.936      39.809
  H       -8.446    -272.669      40.865
  H       -7.201    -270.547      40.882
  H       -7.725    -270.946      39.230
  P      -10.254    -271.857      37.458
  C       -8.966    -269.815      36.449
  O       -9.023    -270.826      37.432
  O      -11.545    -270.961      37.765
  O      -10.388    -272.755      36.271
  H      -11.592    -270.696      38.702
  H       -9.963    -269.461      36.174
  H       -8.462    -270.206      35.559
  H       -8.391    -268.972      36.842
  H       -6.306    -265.833      40.785
  H       -5.888    -266.631      39.288
  H       -5.994    -267.552      40.769

 3  4  5  6  7  8  9  10  11  12  13  23  28  29  30  31  32 0
 6-311+G(2d,p)
 ****
 33  34 0
 6-311+G(2d,p)
 ****
 1  2  14  15  16  17  18  19  20  21  22  24  25  26 0
 3-21G
 ****
 27  35  36  37  38  39  40  41  42  43  44  45 0
 3-21G
 ****


