%nproc=1
%NoSave
%Mem=1900MB
#P OB98/GEN NMR

erre ene a

0 1
  C     -489.435     592.689    -242.117
  O     -489.555     592.210    -240.772
  P     -489.530     593.325    -239.610
  C     -487.720     592.268    -238.065
  O     -489.089     592.605    -238.249
  C     -487.552     591.426    -236.797
  O     -488.048     592.112    -235.625
  C     -488.304     590.104    -236.842
  O     -487.644     589.166    -237.676
  C     -488.321     589.732    -235.368
  O     -487.050     589.163    -234.973
  C     -488.496     591.097    -234.686
  N     -492.330     589.726    -231.591
  C     -491.072     589.260    -231.720
  N     -490.113     589.668    -232.579
  C     -490.553     590.694    -233.325
  C     -491.804     591.290    -233.303
  C     -492.724     590.750    -232.374
  N     -494.020     591.229    -232.241
  N     -491.900     592.313    -234.215
  C     -490.719     592.325    -234.815
  N     -489.879     591.380    -234.306
  O     -491.080     593.658    -239.393
  O     -488.742     594.541    -239.963
  H     -487.184     588.756    -234.091
  H     -491.279     594.556    -239.742
  H     -490.799     588.429    -231.069
  H     -490.435     592.998    -235.612
  H     -487.882     591.195    -233.783
  H     -489.089     589.000    -235.112
  H     -489.331     590.261    -237.200
  H     -486.472     591.245    -236.663
  H     -487.113     593.184    -237.977
  H     -494.642     590.743    -231.610
  H     -494.353     591.930    -232.890
  H     -487.366     591.732    -238.946
  P     -488.468     588.574    -238.923
  C     -487.804     586.154    -238.358
  O     -487.681     587.209    -239.277
  O     -488.037     589.554    -240.099
  O     -489.939     588.414    -238.698
  H     -487.074     589.709    -240.105
  H     -487.245     585.287    -238.740
  H     -488.849     585.870    -238.240
  H     -487.381     586.443    -237.390
  H     -489.465     591.861    -242.794
  H     -488.506     593.209    -242.229
  H     -490.244     593.355    -242.332

 3  4  5  6  7  8  9  10  11  12  22  25  29  30  31  32 0
 6-311+G(2d,p)
 ****
 33  36  37 0
 6-311+G(2d,p)
 ****
 1  2  13  14  15  16  17  18  19  20  21  23  24  26 0
 3-21G
 ****
 27  28  34  35  38  39  40  41  42  43  44  45  46  47  48 0
 3-21G
 ****


