%nproc=1
%NoSave
%Mem=1900MB
#P OB98/GEN NMR

erre ene a

0 1
  C       95.575    -196.638    -147.994
  O       96.884    -197.143    -148.183
  H       95.577    -195.966    -147.131
  H       94.885    -197.463    -147.791
  H       95.238    -196.080    -148.869
  P       97.219    -197.936    -149.534
  C       96.206    -200.175    -148.738
  O       96.123    -199.098    -149.668
  C       95.341    -201.348    -149.190
  O       95.509    -202.445    -148.235
  C       93.832    -201.033    -149.255
  O       93.269    -201.829    -150.310
  C       93.369    -201.535    -147.900
  O       91.966    -201.645    -147.831
  C       94.183    -202.826    -147.798
  N       94.206    -203.393    -146.460
  C       93.257    -204.363    -146.164
  O       92.416    -204.777    -146.959
  N       93.284    -204.849    -144.878
  C       94.149    -204.465    -143.896
  O       94.144    -204.949    -142.770
  C       95.113    -203.417    -144.264
  C       95.104    -202.938    -145.504
  O       98.637    -198.380    -149.691
  O       96.797    -196.914    -150.693
  H       97.586    -196.437    -151.015
  H       91.649    -202.384    -148.400
  H       92.598    -205.558    -144.645
  H       95.798    -203.076    -143.498
  H       95.797    -202.158    -145.816
  H       93.812    -203.571    -148.508
  H       93.662    -200.827    -147.117
  H       93.624    -199.975    -149.445
  H       95.710    -201.713    -150.157
  H       95.854    -199.807    -147.768
  H       97.249    -200.494    -148.649
  P       92.631    -201.190    -151.644
  C       90.123    -201.251    -151.035
  O       91.260    -200.434    -151.272
  O       92.479    -202.178    -152.763
  O       93.619    -200.008    -152.070
  H       93.662    -199.960    -153.045
  H       89.282    -200.633    -150.799
  H       90.322    -201.910    -150.216
  H       89.908    -201.826    -151.911

 6  7  8  9  10  11  12  13  14  15  16  27  31  32  33  34  35 0
 6-311+G(2d,p)
 ****
 36  37 0
 6-311+G(2d,p)
 ****
 1  2  3  4  5  17  18  19  20  21  22  23  24  25 0
 3-21G
 ****
 26  28  29  30  38  39  40  41  42  43  44  45 0
 3-21G
 ****


