%nproc=1
%NoSave
%Mem=1900MB
#P OB98/GEN NMR

erre ene a

0 1
  C      266.421     997.156     566.605
  O      265.316     996.544     565.965
  H      267.309     997.005     565.990
  H      266.585     996.705     567.587
  H      266.245     998.236     566.715
  P      263.897     996.676     566.702
  C      261.450     996.447     565.844
  O      262.785     996.802     565.534
  C      260.525     996.927     564.730
  O      260.503     998.368     564.699
  C      260.967     996.511     563.335
  O      260.632     995.155     563.046
  C      260.217     997.518     562.477
  O      258.872     997.097     562.228
  C      260.240     998.780     563.331
  N      261.123    1002.755     560.250
  C      260.003    1002.075     560.538
  N      259.840    1001.027     561.385
  C      261.008    1000.725     561.976
  C      262.236    1001.338     561.789
  C      262.291    1002.402     560.874
  N      263.430    1003.073     560.556
  N      263.205    1000.710     562.556
  C      262.575     999.760     563.205
  N      261.247     999.725     562.889
  O      263.946     998.141     567.339
  O      263.616     995.626     567.727
  H      258.929     996.352     561.596
  H      264.177     998.080     568.289
  H      259.102    1002.397     560.012
  H      263.045     999.060     563.894
  H      259.281     999.306     563.327
  H      260.717     997.635     561.503
  H      262.056     996.668     563.206
  H      259.501     996.571     564.927
  H      261.153     996.919     566.783
  H      261.390     995.356     565.958
  H      263.396    1003.788     559.849
  H      264.307    1002.751     560.933
  P      261.755     994.247     562.357
  C      262.293     991.685     562.288
  O      261.501     992.741     562.824
  O      263.110     994.649     563.131
  O      261.892     994.415     560.882
  H      263.870     994.619     562.505
  H      261.982     990.754     562.714
  H      263.323     991.858     562.522
  H      262.169     991.650     561.226

 6  7  8  9  10  11  12  13  14  15  25  28  32  33  34  35 0
 6-311+G(2d,p)
 ****
 36  37  40 0
 6-311+G(2d,p)
 ****
 1  2  3  4  5  16  17  18  19  20  21  22  23  24 0
 3-21G
 ****
 26  27  29  30  31  38  39 41  42  43  44  45  46  47  48 0
 3-21G
 ****


