%nproc=1
%NoSave
%Mem=1900MB
#P OB98/GEN NMR

erre ene a

0 1
  C      -50.095     -19.445    -269.345
  O      -49.821     -20.700    -268.711
  P      -49.300     -20.788    -267.197
  C      -50.974     -21.203    -265.294
  O      -50.216     -21.798    -266.342
  C      -52.256     -21.979    -264.961
  O      -53.119     -22.087    -266.125
  C      -52.032     -23.407    -264.444
  O      -53.109     -23.674    -263.545
  C      -52.179     -24.229    -265.714
  O      -52.440     -25.605    -265.472
  C      -53.323     -23.485    -266.396
  N      -55.958     -25.727    -270.174
  C      -56.265     -25.497    -268.879
  N      -55.529     -24.862    -267.946
  C      -54.380     -24.403    -268.470
  C      -53.936     -24.553    -269.775
  C      -54.776     -25.262    -270.648
  N      -54.450     -25.541    -271.956
  N      -52.691     -23.975    -269.936
  C      -52.387     -23.494    -268.747
  N      -53.380     -23.726    -267.826
  O      -49.091     -19.460    -266.543
  O      -47.902     -21.565    -267.307
  H      -52.363     -26.084    -266.317
  H      -47.235     -21.102    -266.764
  H      -57.227     -25.879    -268.548
  H      -51.462     -22.996    -268.487
  H      -54.294     -23.771    -265.969
  H      -51.250     -24.164    -266.295
  H      -51.067     -23.547    -263.954
  H      -52.811     -21.392    -264.217
  H      -51.237     -20.180    -265.592
  H      -55.076     -26.135    -272.476
  H      -53.523     -25.314    -272.289
  H      -50.344     -21.136    -264.400
  P      -52.854     -24.251    -262.072
  C      -51.415     -22.632    -260.704
  O      -52.729     -22.983    -261.099
  O      -51.733     -25.231    -261.966
  O      -54.251     -24.907    -261.647
  H      -54.106     -25.534    -260.913
  H      -51.064     -23.329    -259.938
  H      -51.424     -21.623    -260.293
  H      -50.729     -22.660    -261.560
  H      -50.429     -19.617    -270.347
  H      -49.204     -18.852    -269.363
  H      -50.856     -18.928    -268.799

 3  4  5  6  7  8  9  10  11  12  22  25  29  30  31  32 0
 6-311+G(2d,p)
 ****
 33  36  37 0
 6-311+G(2d,p)
 ****
 1  2  13  14  15  16  17  18  19  20  21  23  24  26 0
 3-21G
 ****
 27  28  34  35  38  39  40  41  42  43  44  45  46  47  48 0
 3-21G
 ****


