%nproc=1
%NoSave
%Mem=1900MB
#P OB98/GEN NMR

erre ene a

0 1
  C      241.235    -138.135      55.863
  O      242.456    -137.643      55.344
  P      242.623    -136.050      55.232
  C      245.206    -136.069      55.553
  O      244.109    -135.801      54.682
  C      246.504    -136.164      54.757
  O      246.613    -137.462      54.148
  C      246.607    -135.164      53.618
  O      246.937    -133.882      54.107
  C      247.695    -135.800      52.759
  O      249.002    -135.403      53.207
  C      247.467    -137.310      52.989
  N      246.907    -137.976      51.823
  C      247.705    -137.955      50.672
  O      248.791    -137.379      50.680
  N      247.225    -138.552      49.530
  C      246.053    -139.111      49.541
  N      245.632    -139.691      48.382
  C      245.180    -139.140      50.729
  C      245.662    -138.554      51.826
  O      242.707    -135.586      56.760
  O      241.530    -135.358      54.485
  H      249.632    -135.803      52.573
  H      242.400    -134.664      56.860
  H      244.213    -139.623      50.687
  H      245.083    -138.526      52.742
  H      248.414    -137.806      53.241
  H      247.612    -135.497      51.712
  H      245.666    -135.128      53.053
  H      247.344    -136.041      55.454
  H      246.251    -139.648      47.584
  H      245.034    -137.019      56.067
  H      244.748    -140.173      48.297
  H      245.265    -135.273      56.301
  P      246.187    -132.622      53.465
  C      245.965    -131.157      55.556
  O      246.662    -131.369      54.343
  O      244.679    -132.832      53.964
  O      246.272    -132.464      51.982
  H      244.096    -132.169      53.549
  H      246.483    -130.379      56.126
  H      245.942    -132.075      56.153
  H      244.944    -130.822      55.349
  H      241.260    -139.205      55.881
  H      240.426    -137.808      55.243
  H      241.095    -137.765      56.857

 3  4  5  6  7  8  9  10  11  12  13  21  23  27  28  29  30  32 0
 6-311+G(2d,p)
 ****
 34  35 0
 6-311+G(2d,p)
 ****
 1  2  14  15  16  17  18  19  20  22  24  25  26 0
 3-21G
 ****
 31  33  36  37  38  39  40  41  42  43  44  45  46 0
 3-21G
 ****


