%nproc=1
%NoSave
%Mem=1900MB
#P OB98/GEN NMR

erre ene a

0 1
  C      -45.626     112.494    -323.006
  O      -46.072     111.186    -323.298
  H      -44.570     112.574    -323.272
  H      -45.738     112.701    -321.939
  H      -46.195     113.227    -323.590
  P      -47.606     110.858    -322.951
  C      -47.050     109.551    -320.776
  O      -47.677     110.691    -321.354
  C      -47.251     109.540    -319.265
  O      -46.485     110.596    -318.637
  C      -48.699     109.731    -318.820
  O      -49.415     108.512    -318.868
  C      -48.509     110.246    -317.398
  O      -48.254     109.168    -316.475
  C      -47.268     111.146    -317.547
  N      -50.211     115.012    -316.183
  C      -50.119     113.738    -315.663
  N      -50.977     113.431    -314.664
  N      -49.270     112.838    -316.086
  C      -48.498     113.274    -317.111
  C      -48.486     114.518    -317.703
  C      -49.411     115.517    -317.199
  O      -49.494     116.685    -317.572
  N      -47.548     114.589    -318.698
  C      -47.024     113.376    -318.740
  N      -47.581     112.540    -317.806
  O      -47.799     109.358    -323.483
  O      -48.608     111.787    -323.549
  H      -48.061     109.542    -315.596
  H      -48.724     109.241    -323.771
  H      -50.874     115.668    -315.803
  H      -46.246     113.059    -319.421
  H      -46.637     111.122    -316.650
  H      -49.400     110.766    -317.032
  H      -51.843     113.944    -314.527
  H      -49.192     110.506    -319.421
  H      -50.933     112.490    -314.291
  H      -46.857     108.589    -318.887
  H      -45.977     109.587    -320.995
  H      -47.476     108.642    -321.218
  P      -50.893     108.534    -319.492
  C      -52.232     108.301    -317.268
  O      -51.856     109.144    -318.352
  O      -51.308     106.992    -319.532
  O      -50.998     109.190    -320.836
  H      -52.065     106.864    -320.136
  H      -52.867     108.843    -316.599
  H      -51.355     107.979    -316.746
  H      -52.756     107.448    -317.645

 6  7  8  9  10  11  12  13  14  15  26  29  33  34 0
 6-311+G(2d,p)
 ****
 36  38  39  40  41 0
 6-311+G(2d,p)
 ****
 1  2  3  4  5  16  17  18  19  20  21  22  23  24  25 0
 3-21G
 ****
 27  28  30  31  32  35  37  42  43  44  45  46  47 0
 3-21G
 ****
 48  49 0
 3-21G
 ****


