%nproc=1
%NoSave
%Mem=1900MB
#P OB98/GEN NMR

erre ene a

0 1
  C      345.446     503.888    -310.609
  O      346.746     503.732    -310.063
  P      347.519     505.062    -309.604
  C      349.503     505.816    -311.104
  O      348.096     505.720    -310.951
  C      350.089     504.485    -311.582
  O      349.450     504.080    -312.805
  C      351.576     504.528    -311.887
  O      352.332     504.489    -310.696
  C      351.734     503.287    -312.762
  O      351.953     502.115    -311.959
  C      350.377     503.211    -313.503
  N      350.483     503.568    -314.903
  C      349.310     503.412    -315.656
  O      348.282     502.970    -315.123
  N      349.338     503.703    -316.998
  C      350.453     504.124    -317.538
  N      350.415     504.416    -318.869
  C      351.702     504.281    -316.786
  C      351.659     503.983    -315.490
  O      348.825     504.493    -308.878
  O      346.725     505.976    -308.722
  H      352.072     501.379    -312.600
  H      349.164     505.128    -308.217
  H      352.596     504.634    -317.283
  H      352.534     504.068    -314.867
  H      349.967     502.193    -313.436
  H      352.596     503.368    -313.433
  H      351.817     505.423    -312.472
  H      349.873     503.716    -310.822
  H      349.538     504.297    -319.365
  H      349.966     506.075    -310.144
  H      351.215     504.766    -319.376
  H      349.727     506.611    -311.820
  P      353.790     505.151    -310.707
  C      355.880     503.683    -310.965
  O      354.689     504.153    -311.577
  O      354.305     504.870    -309.220
  O      353.868     506.603    -311.065
  H      355.158     505.322    -309.085
  H      356.299     502.895    -311.591
  H      355.656     503.261    -309.975
  H      356.595     504.498    -310.882
  H      345.051     502.928    -310.870
  H      345.498     504.502    -311.484
  H      344.808     504.351    -309.885

 3  4  5  6  7  8  9  10  11  12  13  21  23  27  28  29  30  32 0
 6-311+G(2d,p)
 ****
 34  35 0
 6-311+G(2d,p)
 ****
 1  2  14  15  16  17  18  19  20  22  24  25  26 0
 3-21G
 ****
 31  33  36  37  38  39  40  41  42  43  44  45  46 0
 3-21G
 ****


