%nproc=1
%NoSave
%Mem=1900MB
#P OB98/GEN NMR

erre ene a

0 1
  C        6.297     449.074      42.302
  O        7.649     448.754      42.584
  P        8.185     447.256      42.433
  C        8.069     447.020      45.045
  O        7.840     446.459      43.770
  C        6.867     446.703      45.948
  O        5.655     447.219      45.362
  C        6.694     445.201      46.144
  O        7.337     444.772      47.333
  C        5.188     445.042      46.182
  O        4.678     445.359      47.490
  C        4.736     446.112      45.158
  N        4.761     445.759      43.724
  C        4.063     446.544      42.812
  O        3.435     447.556      43.118
  N        4.089     446.108      41.509
  C        4.769     445.017      41.049
  O        4.590     444.505      39.949
  C        5.696     444.401      42.003
  C        5.635     444.779      43.279
  O        9.774     447.432      42.506
  O        7.756     446.543      41.190
  H        4.906     446.292      47.668
  H       10.161     447.431      41.612
  H        3.471     446.594      40.867
  H        6.356     443.626      41.645
  H        6.284     444.304      44.012
  H        3.727     446.473      45.383
  H        4.892     444.013      45.981
  H        7.081     444.655      45.274
  H        7.014     447.199      46.917
  H        8.206     448.103      44.958
  H        8.984     446.609      45.476
  P        8.516     443.692      47.253
  C        7.077     442.111      48.671
  O        7.797     442.272      47.465
  O        9.690     443.953      48.133
  O        8.917     443.702      45.700
  H        9.703     444.271      45.567
  H        6.498     441.184      48.614
  H        6.393     442.949      48.828
  H        7.775     442.037      49.511
  H        6.137     450.120      42.462
  H        5.655     448.512      42.948
  H        6.078     448.831      41.283

 3  4  5  6  7  8  9  10  11  12  13  23  28  29  30  31  32 0
 6-311+G(2d,p)
 ****
 33  34 0
 6-311+G(2d,p)
 ****
 1  2  14  15  16  17  18  19  20  21  22  24  25  26  27 0
 3-21G
 ****
 35  36  37  38  39  40  41  42  43  44  45 0
 3-21G
 ****


