%nproc=1
%NoSave
%Mem=1900MB
#P OB98/GEN NMR

erre ene a

0 1
  C     -211.426    -232.310     255.984
  O     -210.693    -231.325     255.283
  H     -212.142    -231.838     256.661
  H     -211.976    -232.920     255.262
  H     -210.749    -232.957     256.549
  P     -209.801    -230.323     256.162
  C     -207.819    -228.729     255.634
  O     -208.650    -229.786     255.179
  C     -206.673    -228.520     254.650
  O     -205.777    -229.654     254.680
  C     -207.110    -228.376     253.196
  O     -207.559    -227.064     252.898
  C     -205.808    -228.692     252.480
  O     -204.931    -227.552     252.542
  C     -205.251    -229.838     253.336
  N     -204.597    -233.277     249.603
  C     -204.093    -232.039     249.787
  N     -204.320    -231.185     250.804
  C     -205.167    -231.724     251.697
  C     -205.766    -232.969     251.640
  C     -205.446    -233.772     250.531
  N     -205.970    -235.031     250.334
  N     -206.604    -233.159     252.724
  C     -206.481    -232.057     253.436
  N     -205.632    -231.155     252.853
  O     -209.005    -231.298     257.153
  O     -210.548    -229.256     256.888
  H     -205.294    -226.886     251.927
  H     -208.689    -230.801     257.930
  H     -203.418    -231.687     249.009
  H     -206.983    -231.866     254.375
  H     -204.157    -229.819     253.403
  H     -205.946    -228.932     251.425
  H     -207.862    -229.129     252.925
  H     -206.104    -227.638     254.974
  H     -207.410    -228.988     256.614
  H     -205.825    -235.441     249.424
  H     -206.714    -235.341     250.940
  H     -208.415    -227.815     255.724
  P     -208.384    -226.861     251.538
  C     -210.257    -225.220     250.783
  O     -209.495    -225.751     251.860
  O     -209.231    -228.212     251.417
  O     -207.547    -226.608     250.326
  H     -209.444    -228.407     250.487
  H     -210.950    -224.497     251.159
  H     -210.793    -226.011     250.301
  H     -209.601    -224.753     250.078

 6  7  8  9  10  11  12  13  14  15  25  28  32  33  34  35 0
 6-311+G(2d,p)
 ****
 36  39  40 0
 6-311+G(2d,p)
 ****
 1  2  3  4  5  16  17  18  19  20  21  22  23  24 0
 3-21G
 ****
 26  27  29  30  31  37  38  41  42  43  44  45  46  47 0
 3-21G
 ****
 48 0
 3-21G
 ****


