%nproc=1
%NoSave
%Mem=1900MB
#P OB98/GEN NMR

erre ene a

0 1
  C     -492.160     454.290     885.797
  O     -493.062     455.023     886.639
  P     -494.103     456.086     886.045
  C     -496.036     455.858     887.738
  O     -494.984     456.679     887.261
  C     -496.806     456.522     888.883
  O     -496.142     456.275     890.147
  C     -496.934     458.032     888.771
  O     -497.953     458.373     887.846
  C     -497.217     458.434     890.211
  O     -498.597     458.227     890.534
  C     -496.339     457.440     890.988
  N     -493.898     460.272     894.480
  C     -495.178     459.865     894.385
  N     -495.749     459.109     893.416
  C     -494.849     458.757     892.488
  C     -493.502     459.106     892.451
  C     -493.024     459.909     893.507
  N     -491.724     460.336     893.593
  N     -492.897     458.583     891.329
  C     -493.853     457.908     890.711
  N     -495.045     457.986     891.375
  O     -494.918     455.572     884.896
  O     -493.214     457.333     885.591
  H     -498.735     458.492     891.462
  H     -493.648     457.801     884.854
  H     -495.833     460.185     895.190
  H     -493.728     457.358     889.787
  H     -496.828     457.082     891.897
  H     -496.982     459.481     890.421
  H     -495.974     458.468     888.452
  H     -497.797     456.053     888.945
  H     -495.605     454.907     888.090
  H     -491.464     460.937     894.358
  H     -491.082     460.103     892.843
  H     -496.722     455.634     886.915
  P     -497.584     459.018     886.426
  C     -499.469     458.232     884.872
  O     -498.958     459.290     885.650
  O     -496.557     458.272     885.630
  O     -497.073     460.491     886.784
  H     -496.411     460.773     886.130
  H     -498.944     458.209     883.912
  H     -500.539     458.413     884.688
  H     -499.357     457.271     885.383
  H     -491.559     453.640     886.398
  H     -491.528     454.974     885.270
  H     -492.720     453.709     885.095

 3  4  5  6  7  8  9  10  11  12  22  25  29  30  31  32 0
 6-311+G(2d,p)
 ****
 33  36  37 0
 6-311+G(2d,p)
 ****
 1  2  13  14  15  16  17  18  19  20  21  23  24  26 0
 3-21G
 ****
 27  28  34  35  38  39  40  41  42  43  44  45  46  47  48 0
 3-21G
 ****


