%nproc=1
%NoSave
%Mem=1900MB
#P OB98/GEN NMR

erre ene a

0 1
  C      486.139     513.427     -95.854
  O      484.761     513.696     -96.026
  P      484.255     514.085     -97.502
  C      485.702     516.175     -98.051
  O      484.440     515.672     -97.641
  C      485.519     517.375     -98.975
  O      484.848     516.984    -100.189
  C      484.666     518.488     -98.385
  O      485.400     519.327     -97.506
  C      484.278     519.253     -99.643
  O      485.358     520.114    -100.050
  C      484.077     518.121    -100.656
  N      479.613     519.472    -102.616
  C      480.874     520.007    -102.826
  N      480.934     521.094    -103.627
  N      481.964     519.519    -102.306
  C      481.747     518.435    -101.517
  C      480.550     517.815    -101.234
  C      479.349     518.370    -101.814
  O      478.201     517.973    -101.624
  N      480.730     516.741    -100.409
  C      482.031     516.708    -100.187
  N      482.682     517.742    -100.802
  O      482.670     513.904     -97.408
  O      484.847     513.267     -98.598
  H      485.529     520.719     -99.303
  H      482.284     513.848     -98.301
  H      478.801     519.886    -103.041
  H      482.534     515.969     -99.577
  H      484.460     518.389    -101.647
  H      483.401     519.892     -99.494
  H      480.119     521.551    -104.014
  H      483.766     518.091     -97.910
  H      481.832     521.545    -103.751
  H      486.513     517.751     -99.239
  H      486.251     515.388     -98.576
  H      486.279     516.462     -97.165
  P      485.254     519.028     -95.935
  C      483.053     520.388     -95.710
  O      484.412     520.258     -95.346
  O      486.738     519.275     -95.382
  O      484.748     517.665     -95.607
  H      486.888     518.755     -94.574
  H      482.577     521.100     -95.027
  H      482.532     519.432     -95.638
  H      482.978     520.779     -96.730
  H      486.330     513.184     -94.830
  H      486.708     514.291     -96.128
  H      486.422     512.602     -96.475

 3  4  5  6  7  8  9  10  11  12  23  26  30  31 0
 6-311+G(2d,p)
 ****
 33  35  36  37  38 0
 6-311+G(2d,p)
 ****
 1  2  13  14  15  16  17  18  19  20  21  22  24  25 0
 3-21G
 ****
 27  28  29  32  34  39  40  41  42  43  44  45  46  47  48  49 0
 3-21G
 ****


