%nproc=1
%NoSave
%Mem=1900MB
#P OB98/GEN NMR

erre ene a

0 1
  C      -97.462    -588.726    -160.234
  O      -98.145    -587.733    -159.497
  H      -98.076    -589.002    -161.096
  H      -97.314    -589.612    -159.613
  H      -96.499    -588.361    -160.592
  P      -97.357    -586.939    -158.348
  C      -95.551    -585.945    -159.900
  O      -96.665    -585.679    -159.062
  C      -94.833    -584.647    -160.284
  O      -93.555    -584.981    -160.892
  C      -95.609    -583.785    -161.290
  O      -95.276    -582.416    -161.026
  C      -95.003    -584.228    -162.612
  O      -95.267    -583.302    -163.639
  C      -93.536    -584.392    -162.205
  N      -92.777    -585.202    -163.166
  C      -92.353    -584.555    -164.319
  O      -92.611    -583.374    -164.571
  N      -91.656    -585.323    -165.211
  C      -91.404    -586.656    -165.090
  O      -90.796    -587.302    -165.936
  C      -91.917    -587.294    -163.870
  C      -92.570    -586.552    -162.977
  O      -96.435    -587.763    -157.508
  O      -98.510    -586.253    -157.476
  H      -96.229    -583.281    -163.843
  H      -98.223    -586.169    -156.548
  H      -91.328    -584.867    -166.052
  H      -91.743    -588.358    -163.748
  H      -92.961    -586.992    -162.061
  H      -93.046    -583.411    -162.130
  H      -95.423    -585.192    -162.924
  H      -96.690    -583.930    -161.245
  H      -94.615    -584.082    -159.372
  H      -95.918    -586.449    -160.803
  H      -94.857    -586.614    -159.378
  P      -95.863    -581.623    -159.761
  C      -94.075    -582.611    -158.191
  O      -94.685    -581.424    -158.683
  O      -97.118    -582.212    -159.194
  O      -96.133    -580.134    -160.293
  H      -96.855    -579.728    -159.784
  H      -93.312    -582.354    -157.486
  H      -93.641    -583.153    -159.005
  H      -94.813    -583.219    -157.712

 6  7  8  9  10  11  12  13  14  15  16  26  31  32  33  34  35 0
 6-311+G(2d,p)
 ****
 36  37 0
 6-311+G(2d,p)
 ****
 1  2  3  4  5  17  18  19  20  21  22  23  24  25 0
 3-21G
 ****
 27  28  29  30  38  39  40  41  42  43  44  45 0
 3-21G
 ****


