%nproc=1
%NoSave
%Mem=1900MB
#P OB98/GEN NMR

erre ene a

0 1
  C     -855.291     104.776    -945.040
  O     -854.613     103.546    -944.882
  H     -855.662     104.847    -946.069
  H     -854.615     105.618    -944.857
  H     -856.147     104.829    -944.364
  P     -853.961     103.270    -943.446
  C     -851.538     102.975    -944.303
  O     -852.450     103.794    -943.581
  C     -850.251     103.748    -944.591
  O     -850.528     104.879    -945.430
  C     -849.553     104.287    -943.354
  O     -848.738     103.279    -942.761
  C     -848.700     105.392    -943.964
  O     -847.500     104.819    -944.540
  C     -849.600     105.943    -945.081
  N     -849.375     110.977    -944.101
  C     -848.396     110.047    -944.241
  N     -848.536     108.718    -944.446
  C     -849.838     108.373    -944.519
  C     -850.935     109.213    -944.401
  C     -850.669     110.573    -944.183
  N     -851.658     111.523    -944.036
  N     -852.108     108.506    -944.515
  C     -851.721     107.276    -944.772
  N     -850.362     107.128    -944.744
  O     -854.137     101.886    -942.911
  O     -854.649     104.425    -942.565
  H     -847.797     104.080    -945.113
  H     -854.695     105.256    -943.077
  H     -847.380     110.411    -944.173
  H     -852.404     106.441    -944.996
  H     -849.028     106.188    -945.984
  H     -848.372     106.130    -943.230
  H     -850.255     104.732    -942.648
  H     -849.574     103.073    -945.154
  H     -851.989     102.645    -945.241
  H     -851.379     112.426    -943.701
  H     -852.612     111.200    -943.969
  H     -851.323     102.092    -943.692
  P     -848.067     103.507    -941.325
  C     -845.720     102.568    -941.831
  O     -846.505     103.739    -941.627
  O     -848.374     102.446    -940.311
  O     -848.574     104.967    -940.872
  H     -848.431     105.079    -939.909
  H     -844.705     102.848    -942.022
  H     -846.103     102.023    -942.668
  H     -845.762     101.954    -940.956

 6  7  8  9  10  11  12  13  14  15  25  28  32  33  34  35 0
 6-311+G(2d,p)
 ****
 36  39  40 0
 6-311+G(2d,p)
 ****
 1  2  3  4  5  16  17  18  19  20  21  22  23  24 0
 3-21G
 ****
 26  27  29  30  31  37  38  41  42  43  44  45  46  47 0
 3-21G
 ****
 48 0
 3-21G
 ****


