%nproc=1
%NoSave
%Mem=1900MB
#P OB98/GEN NMR

erre ene a

0 1
  C       79.126    -107.723     179.614
  O       79.142    -106.308     179.821
  P       80.575    -105.593     179.712
  C       81.827    -104.882     177.553
  O       80.631    -104.807     178.313
  C       81.574    -104.453     176.106
  O       80.500    -105.191     175.494
  C       81.201    -102.984     175.967
  O       82.367    -102.178     176.034
  C       80.534    -102.959     174.599
  O       81.512    -102.849     173.542
  C       79.832    -104.325     174.539
  N       75.239    -103.248     172.686
  C       76.490    -103.010     172.146
  N       76.519    -102.426     170.931
  N       77.609    -103.322     172.746
  C       77.427    -103.902     173.957
  C       76.242    -104.213     174.581
  C       75.010    -103.862     173.909
  O       73.880    -104.069     174.333
  N       76.458    -104.856     175.776
  C       77.770    -104.814     175.925
  N       78.408    -104.306     174.822
  O       81.584    -106.818     179.509
  O       80.929    -104.783     180.914
  H       81.062    -102.941     172.683
  H       82.131    -106.934     180.309
  H       74.410    -102.980     172.185
  H       78.305    -105.164     176.796
  H       79.941    -104.792     173.552
  H       79.865    -102.104     174.486
  H       75.697    -102.163     170.412
  H       80.477    -102.703     176.743
  H       77.426    -102.251     170.515
  H       82.493    -104.657     175.537
  H       82.220    -105.899     177.572
  H       82.583    -104.243     178.023
  P       82.767    -101.559     177.458
  C       83.412    -102.509     179.785
  O       83.134    -102.780     178.426
  O       81.369    -101.020     178.027
  O       83.779    -100.465     177.394
  H       81.494    -100.135     178.416
  H       83.126    -103.377     180.383
  H       82.862    -101.633     180.145
  H       84.485    -102.332     179.905
  H       78.124    -108.086     179.710
  H       79.749    -108.197     180.343
  H       79.493    -107.944     178.633

 3  4  5  6  7  8  9  10  11  12  23  26  30  31 0
 6-311+G(2d,p)
 ****
 33  35  36  37  38 0
 6-311+G(2d,p)
 ****
 1  2  13  14  15  16  17  18  19  20  21  22  24  25 0
 3-21G
 ****
 27  28  29  32  34  39  40  41  42  43  44  45  46  47  48  49 0
 3-21G
 ****


