%nproc=1
%NoSave
%Mem=1900MB
#P OB98/GEN NMR

erre ene a

0 1
  C     -118.752    -123.532     151.825
  O     -119.194    -123.096     150.544
  P     -118.163    -122.239     149.658
  C     -119.846    -120.314     150.105
  O     -118.478    -120.703     149.998
  C     -120.033    -119.325     151.250
  O     -119.613    -119.931     152.488
  C     -119.220    -118.050     151.125
  O     -119.834    -117.111     150.257
  C     -119.226    -117.554     152.563
  O     -120.457    -116.856     152.830
  C     -119.165    -118.866     153.362
  N     -116.237    -119.357     157.466
  C     -117.572    -119.018     157.365
  N     -118.227    -118.806     158.530
  N     -118.208    -118.896     156.231
  C     -117.439    -119.175     155.154
  C     -116.106    -119.521     155.125
  C     -115.399    -119.603     156.387
  O     -114.201    -119.835     156.534
  N     -115.675    -119.744     153.842
  C     -116.752    -119.573     153.100
  N     -117.841    -119.195     153.849
  O     -118.733    -122.414     148.174
  O     -116.736    -122.660     149.762
  H     -120.343    -115.944     152.508
  H     -118.011    -122.289     147.525
  H     -115.802    -119.453     158.366
  H     -116.788    -119.706     152.030
  H     -119.853    -118.840     154.216
  H     -118.411    -116.854     152.777
  H     -117.829    -119.014     159.433
  H     -118.189    -118.267     150.815
  H     -119.214    -118.594     158.480
  H     -121.103    -119.097     151.331
  H     -120.461    -121.203     150.294
  H     -120.159    -119.869     149.156
  P     -118.948    -116.579     149.025
  C     -118.751    -114.290     150.241
  O     -118.081    -115.372     149.622
  O     -120.024    -115.855     148.086
  O     -118.192    -117.647     148.308
  H     -119.714    -115.857     147.159
  H     -119.633    -114.631     150.796
  H     -119.054    -113.568     149.482
  H     -118.068    -113.805     150.943
  H     -119.533    -124.087     152.302
  H     -118.502    -122.682     152.424
  H     -117.889    -124.155     151.712

 3  4  5  6  7  8  9  10  11  12  23  26  30  31  33  0
 6-311+G(2d,p)
 ****
 35  36  37  38 0
 6-311+G(2d,p)
 ****
 1  2  13  14  15  16  17  18  19  20  21  22  24  25  27  28  29 0
 3-21G
 ****
 32  34  39  40  41  42  43  44  45  46  47  48  49 0
 3-21G
 ****


