%nproc=1
%NoSave
%Mem=1900MB
#P OB98/GEN NMR

erre ene a

0 1
  C      -72.240     -31.128      19.915
  O      -71.756     -31.770      21.081
  P      -70.584     -31.065      21.912
  C      -68.714     -32.263      20.559
  O      -69.278     -31.031      20.980
  C      -67.751     -32.037      19.391
  O      -68.441     -31.306      18.333
  C      -66.498     -31.231      19.762
  O      -65.414     -31.726      18.962
  C      -66.864     -29.830      19.311
  O      -65.737     -28.987      19.131
  C      -67.632     -30.153      18.025
  N      -68.445     -29.034      17.552
  C      -68.053     -28.414      16.371
  O      -67.071     -28.749      15.710
  N      -68.800     -27.332      15.989
  C      -69.818     -26.767      16.700
  O      -70.371     -25.728      16.360
  C      -70.189     -27.465      17.941
  C      -69.498     -28.549      18.304
  O      -70.224     -32.151      23.031
  O      -70.949     -29.748      22.509
  H      -65.353     -28.821      20.011
  H      -70.642     -31.916      23.880
  H      -68.537     -26.877      15.129
  H      -71.007     -27.056      18.519
  H      -69.737     -29.071      19.224
  H      -66.933     -30.454      17.234
  H      -67.516     -29.366      20.060
  H      -66.242     -31.282      20.824
  H      -67.469     -33.014      18.979
  H      -69.514     -32.933      20.240
  H      -68.196     -32.736      21.401
  P      -64.016     -32.025      19.694
  C      -62.667     -29.850      19.169
  O      -63.401     -30.607      20.107
  O      -63.120     -32.487      18.447
  O      -64.111     -33.053      20.774
  H      -63.250     -31.925      17.666
  H      -63.057     -29.976      18.156
  H      -61.620     -30.160      19.194
  H      -62.728     -28.793      19.441
  H      -73.015     -31.721      19.477
  H      -71.440     -31.012      19.214
  H      -72.630     -30.166      20.173

 3  4  5  6  7  8  9  10  11  12  13  23  28  29  30  31  32 0
 6-311+G(2d,p)
 ****
 33  34 0
 6-311+G(2d,p)
 ****
 1  2  14  15  16  17  18  19  20  21  22  24  25  26 0
 3-21G
 ****
 27  35  36  37  38  39  40  41  42  43  44  45 0
 3-21G
 ****


