%nproc=1
%NoSave
%Mem=1900MB
#P OB98/GEN NMR

erre ene a

0 1
  C       83.819    -135.174     160.519
  O       84.488    -134.721     159.357
  P       83.841    -133.590     158.428
  C       82.011    -134.897     157.200
  O       83.301    -134.308     157.096
  C       81.187    -134.657     155.936
  O       79.921    -135.367     156.053
  C       80.858    -133.184     155.654
  O       80.845    -133.029     154.229
  C       79.445    -133.042     156.195
  O       78.750    -131.928     155.648
  C       78.872    -134.403     155.815
  N       73.970    -133.277     156.737
  C       74.887    -132.701     155.930
  N       76.181    -133.044     155.760
  C       76.498    -134.102     156.525
  C       75.679    -134.775     157.418
  C       74.345    -134.335     157.498
  N       73.388    -134.931     158.290
  N       76.387    -135.772     158.063
  C       77.607    -135.700     157.569
  N       77.702    -134.748     156.590
  O       84.702    -132.395     158.187
  O       82.494    -133.185     159.191
  H       77.834    -131.943     155.983
  H       82.603    -132.312     159.616
  H       74.537    -131.857     155.344
  H       78.447    -136.304     157.879
  H       78.601    -134.453     154.753
  H       79.482    -132.916     157.286
  H       81.558    -132.476     156.112
  H       81.724    -135.098     155.087
  H       81.501    -134.444     158.056
  H       72.437    -134.620     158.170
  H       73.566    -135.864     158.656
  H       82.110    -135.974     157.388
  P       82.039    -132.251     153.496
  C       80.728    -130.060     153.317
  O       81.361    -131.108     152.604
  O       83.026    -133.119     152.784
  O       82.729    -131.423     154.684
  H       83.624    -131.140     154.408
  H       79.735    -130.388     153.640
  H       80.621    -129.194     152.658
  H       81.316    -129.768     154.194
  H       84.409    -135.926     161.000
  H       82.870    -135.586     160.246
  H       83.672    -134.353     161.189

 3  4  5  6  7  8  9  10  11  12  22  25  29  30  31  32 0
 6-311+G(2d,p)
 ****
 33  36  37 0
 6-311+G(2d,p)
 ****
 1  2  13  14  15  16  17  18  19  20  21  23  24  26 0
 3-21G
 ****
 27  28  34  35  38  39  40  41  42  43  44  45  46  47  48 0
 3-21G
 ****


