%nproc=1
%NoSave
%Mem=1900MB
#P OB98/GEN NMR

erre ene a

0 1
  C     -312.681    -899.090     799.206
  O     -313.646    -898.100     799.447
  P     -315.176    -898.240     799.008
  C     -314.667    -896.800     796.906
  O     -315.535    -897.010     798.003
  C     -315.287    -895.940     795.790
  O     -316.300    -896.710     795.096
  C     -316.019    -894.740     796.415
  O     -315.309    -893.570     796.765
  C     -317.222    -894.510     795.514
  O     -317.010    -893.470     794.554
  C     -317.400    -895.860     794.808
  N     -322.467    -895.950     794.446
  C     -321.562    -895.250     793.697
  N     -322.100    -894.320     792.858
  N     -320.262    -895.430     793.746
  C     -319.877    -896.320     794.711
  C     -320.704    -897.100     795.501
  C     -322.137    -896.920     795.411
  O     -322.971    -897.470     796.114
  N     -319.976    -897.850     796.415
  C     -318.732    -897.500     796.167
  N     -318.624    -896.560     795.179
  O     -316.161    -898.590     800.091
  O     -315.105    -899.490     797.996
  H     -316.831    -892.650     795.046
  H     -315.936    -900.000     798.091
  H     -323.452    -895.710     794.418
  H     -317.880    -897.870     796.710
  H     -317.430    -895.710     793.726
  H     -318.103    -894.190     796.115
  H     -323.056    -894.050     792.894
  H     -316.436    -895.080     797.369
  H     -321.443    -893.660     792.432
  H     -314.546    -895.660     795.033
  H     -314.373    -897.780     796.513
  H     -313.734    -896.320     797.256
  P     -315.178    -892.930     798.226
  C     -317.584    -892.090     798.481
  O     -316.235    -891.720     798.333
  O     -313.783    -892.170     798.207
  O     -315.234    -893.920     799.343
  H     -313.459    -892.060     799.139
  H     -318.232    -891.250     798.249
  H     -317.783    -892.390     799.519
  H     -317.829    -892.930     797.823
  H     -311.736    -898.768     799.590
  H     -312.599    -899.259     798.153
  H     -312.973    -899.998     799.691

 3  4  5  6  7  8  9  10  11  12  23  26  30  31 0
 6-311+G(2d,p)
 ****
 33  35  36  37  38 0
 6-311+G(2d,p)
 ****
 1  2  13  14  15  16  17  18  19  20  21  22  24  25 0
 3-21G
 ****
 27  28  29  32  34  39  40  41  42  43  44  45  46  47  48  49 0
 3-21G
 ****


