%nproc=1
%NoSave
%Mem=1900MB
#P OB98/GEN NMR

erre ene a

0 1
  C       39.903    -114.741     -31.699
  O       40.204    -114.281     -30.396
  H       40.240    -113.991     -32.419
  H       38.825    -114.883     -31.812
  H       40.427    -115.680     -31.894
  P       39.756    -115.227     -29.179
  C       42.213    -115.706     -28.566
  O       40.978    -115.142     -28.139
  C       43.386    -114.858     -28.072
  O       43.574    -113.750     -28.989
  C       43.168    -114.273     -26.674
  O       44.403    -114.293     -25.959
  C       42.762    -112.836     -26.948
  O       43.058    -111.969     -25.856
  C       43.542    -112.532     -28.226
  N       43.035    -107.472     -28.639
  C       43.828    -108.239     -27.864
  N       43.912    -109.587     -27.828
  C       43.095    -110.137     -28.746
  C       42.227    -109.484     -29.602
  C       42.208    -108.081     -29.522
  N       41.383    -107.291     -30.291
  N       41.523    -110.397     -30.362
  C       41.968    -111.580     -29.981
  N       42.909    -111.472     -28.993
  O       39.331    -116.606     -29.555
  O       38.637    -114.333     -28.469
  H       44.031    -111.928     -25.752
  H       38.917    -113.401     -28.394
  H       44.478    -107.704     -27.175
  H       41.636    -112.534     -30.376
  H       44.573    -112.217     -28.024
  H       41.682    -112.788     -27.134
  H       42.405    -114.811     -26.110
  H       44.299    -115.462     -28.113
  H       42.242    -115.767     -29.659
  H       41.443    -106.292     -30.180
  H       40.772    -107.727     -30.967
  H       42.279    -116.719     -28.159
  P       44.370    -114.056     -24.373
  C       45.243    -116.423     -23.824
  O       45.457    -115.021     -23.690
  O       43.021    -114.060     -23.740
  O       45.061    -112.615     -24.227
  H       44.613    -112.121     -23.514
  H       46.030    -116.953     -23.329
  H       45.234    -116.685     -24.861
  H       44.304    -116.684     -23.382

 6  7  8  9  10  11  12  13  14  15  25  28  32  33  34  35 0
 6-311+G(2d,p)
 ****
 36  39  40 0
 6-311+G(2d,p)
 ****
 1  2  3  4  5  16  17  18  19  20  21  22  23  24 0
 3-21G
 ****
 26  27  29  30  31  37  38  41  42  43  44  45  46  47 0
 3-21G
 ****
 48 0
 3-21G
 ****


