%nproc=1
%NoSave
%Mem=1900MB
#P OB98/GEN NMR

erre ene a

0 1
  C       94.643      33.527      75.425
  O       95.961      33.105      75.135
  H       94.093      32.685      75.851
  H       94.135      33.852      74.512
  H       94.655      34.341      76.155
  P       96.966      34.152      74.458
  C       96.036      33.416      72.163
  O       96.342      34.507      73.023
  C       95.312      33.913      70.915
  O       93.953      34.271      71.230
  C       95.944      35.148      70.273
  O       97.045      34.781      69.460
  C       94.770      35.669      69.461
  O       94.609      34.869      68.272
  C       93.589      35.423      70.420
  N       90.451      39.314      71.296
  C       90.534      38.472      70.205
  N       89.679      38.722      69.190
  N       91.385      37.484      70.111
  C       92.223      37.398      71.169
  C       92.252      38.183      72.299
  C       91.260      39.232      72.420
  O       91.137      39.985      73.382
  N       93.306      37.856      73.114
  C       93.882      36.838      72.502
  N       93.268      36.525      71.310
  O       98.407      33.744      74.408
  O       96.753      35.501      75.293
  H       95.488      34.799      67.854
  H       97.384      35.560      76.033
  H       89.780      40.065      71.309
  H       94.737      36.289      72.877
  H       92.668      35.170      69.883
  H       94.902      36.703      69.139
  H       89.108      39.551      69.138
  H       96.216      35.896      71.024
  H       89.765      38.150      68.357
  H       95.267      33.080      70.200
  H       95.399      32.724      72.723
  H       96.951      32.891      71.872
  P       98.299      35.765      69.250
  C       96.872      37.343      67.780
  O       97.662      37.205      68.948
  O       99.296      35.302      68.246
  O       98.893      35.967      70.719
  H       99.526      35.252      70.981
  H       96.515      38.349      67.707
  H       96.040      36.673      67.831
  H       97.464      37.111      66.919

 6  7  8  9  10  11  12  13  14  15  26  29  33  34 0
 6-311+G(2d,p)
 ****
 36  38  39  40  41 0
 6-311+G(2d,p)
 ****
 1  2  3  4  5  16  17  18  19  20  21  22  23  24  25 0
 3-21G
 ****
 27  28  30  31  32  35  37  42  43  44  45  46  47 0
 3-21G
 ****
 48  49 0
 3-21G
 ****


