%nproc=1
%NoSave
%Mem=1900MB
#P OB98/GEN NMR

erre ene a

0 1
  C      307.600    -264.803    -440.476
  O      306.887    -264.752    -439.258
  H      308.525    -265.363    -440.317
  H      307.858    -263.792    -440.801
  H      307.015    -265.306    -441.252
  P      305.404    -264.146    -439.256
  C      304.110    -266.184    -438.339
  O      304.400    -265.376    -439.470
  C      302.822    -266.982    -438.560
  O      301.683    -266.089    -438.378
  C      302.692    -267.604    -439.967
  O      301.918    -268.801    -439.828
  C      301.906    -266.517    -440.683
  O      301.413    -266.938    -441.929
  C      300.891    -266.177    -439.583
  N      300.131    -264.950    -439.791
  C      298.780    -264.965    -439.471
  O      298.179    -265.937    -439.015
  N      298.102    -263.793    -439.691
  C      298.637    -262.636    -440.176
  O      297.988    -261.607    -440.323
  C      300.069    -262.683    -440.503
  C      300.737    -263.818    -440.299
  O      305.180    -262.981    -440.160
  O      305.160    -263.754    -437.720
  H      305.274    -262.792    -437.605
  H      302.173    -267.116    -442.529
  H      297.122    -263.783    -439.454
  H      300.521    -261.786    -440.905
  H      301.799    -263.880    -440.523
  H      300.194    -267.011    -439.451
  H      302.555    -265.666    -440.895
  H      303.656    -267.836    -440.420
  H      302.746    -267.754    -437.782
  H      303.992    -265.527    -437.471
  H      304.949    -266.866    -438.159
  P      302.537    -270.201    -439.334
  C      301.869    -269.608    -436.909
  O      302.899    -270.063    -437.773
  O      303.676    -270.686    -440.175
  O      301.314    -271.235    -439.362
  H      301.658    -272.139    -439.485
  H      302.239    -269.562    -435.906
  H      301.042    -270.285    -436.953
  H      301.550    -268.634    -437.217

 6  7  8  9  10  11  12  13  14  15  16  27  31  32  33  34  35 0
 6-311+G(2d,p)
 ****
 36  37 0
 6-311+G(2d,p)
 ****
 1  2  3  4  5  17  18  19  20  21  22  23  24  25 0
 3-21G
 ****
 26  28  29  30  38  39  40  41  42  43  44  45 0
 3-21G
 ****


