%nproc=1
%NoSave
%Mem=1900MB
#P OB98/GEN NMR

erre ene a

0 1
  C      -42.050    -374.204    -263.201
  O      -41.334    -375.362    -262.808
  P      -40.812    -376.326    -263.982
  C      -43.166    -377.420    -263.741
  O      -42.111    -377.028    -264.600
  C      -44.513    -377.158    -264.422
  O      -44.672    -375.746    -264.679
  C      -44.683    -377.858    -265.765
  O      -45.075    -379.207    -265.575
  C      -45.752    -376.995    -266.425
  O      -47.066    -377.349    -265.949
  C      -45.357    -375.587    -265.953
  N      -45.299    -372.797    -270.173
  C      -46.329    -373.521    -269.594
  N      -47.529    -373.446    -270.212
  N      -46.197    -374.238    -268.514
  C      -44.939    -374.230    -268.015
  C      -43.832    -373.574    -268.502
  C      -44.005    -372.735    -269.667
  O      -43.150    -372.003    -270.158
  N      -42.721    -373.818    -267.736
  C      -43.167    -374.597    -266.770
  N      -44.509    -374.862    -266.880
  O      -40.071    -377.495    -263.191
  O      -39.927    -375.667    -265.001
  H      -47.736    -376.923    -266.510
  H      -39.105    -377.348    -263.174
  H      -45.460    -372.249    -270.996
  H      -42.564    -374.981    -265.960
  H      -46.237    -374.954    -265.764
  H      -45.771    -377.117    -267.509
  H      -47.699    -372.932    -271.065
  H      -43.756    -377.803    -266.344
  H      -48.295    -373.969    -269.808
  H      -45.307    -377.460    -263.726
  H      -43.113    -376.843    -262.816
  H      -43.060    -378.483    -263.500
  P      -44.087    -380.349    -266.118
  C      -45.948    -381.261    -267.684
  O      -44.620    -380.779    -267.566
  O      -44.430    -381.604    -265.189
  O      -42.636    -379.996    -266.048
  H      -43.615    -382.112    -265.013
  H      -46.321    -381.014    -268.678
  H      -46.609    -380.815    -266.938
  H      -45.948    -382.346    -267.564
  H      -42.339    -373.651    -262.332
  H      -42.924    -374.493    -263.747
  H      -41.428    -373.593    -263.821

 3  4  5  6  7  8  9  10  11  12  23  26  30  31 0
 6-311+G(2d,p)
 ****
 33  35  36  37  38 0
 6-311+G(2d,p)
 ****
 1  2  13  14  15  16  17  18  19  20  21  22  24  25 0
 3-21G
 ****
 27  28  29  32  34  39  40  41  42  43  44  45  46  47  48  49 0
 3-21G
 ****


