%nproc=1
%NoSave
%Mem=1900MB
#P OB98/GEN NMR

erre ene a

0 1
  C       14.111      19.266      99.527
  O       14.824      20.452      99.800
  H       14.481      18.839      98.592
  H       13.048      19.487      99.412
  H       14.255      18.536     100.329
  P       14.556      21.168     101.210
  C       13.069      22.972     100.083
  O       13.163      21.955     101.069
  C       11.749      23.731     100.226
  O       11.628      24.206     101.592
  C       11.631      24.940      99.296
  O       10.281      25.028      98.830
  C       11.932      26.121     100.200
  O       11.349      27.336      99.731
  C       11.390      25.626     101.547
  N       12.023      26.318     102.666
  C       11.498      27.566     103.011
  O       10.552      28.036     102.377
  N       12.088      28.277     104.023
  C       13.164      27.822     104.585
  N       13.720      28.588     105.562
  C       13.794      26.542     104.207
  C       13.173      25.845     103.256
  O       15.639      22.344     101.241
  O       14.647      20.279     102.406
  H       10.382      27.298      99.898
  H       15.934      22.530     102.153
  H       14.706      26.218     104.686
  H       13.565      24.898     102.908
  H       10.304      25.781     101.607
  H       13.017      26.270     100.259
  H       12.308      24.893      98.440
  H       10.925      23.027     100.060
  H       13.269      29.468     105.780
  H       13.107      22.511      99.091
  H       14.580      28.355     106.034
  H       13.916      23.658     100.186
  P        9.953      24.316      97.432
  C       10.763      26.372      96.068
  O       10.881      24.975      96.304
  O        8.487      24.851      97.080
  O        9.995      22.824      97.496
  H        7.835      24.134      97.189
  H       11.441      26.661      95.293
  H       10.998      26.906      96.965
  H        9.761      26.600      95.769

 6  7  8  9  10  11  12  13  14  15  16  26  30  31  32  33  35 0
 6-311+G(2d,p)
 ****
 37  38 0
 6-311+G(2d,p)
 ****
 1  2  3  4  5  17  18  19  20  21  22  23  24  25 0
 3-21G
 ****
 27  28  29  34  36  39  40  41  42  43  44  45  46 0
 3-21G
 ****


