%nproc=1
%NoSave
%Mem=1900MB
#P OB98/GEN NMR

erre ene a

0 1
  C      166.079     -52.000     -19.963
  O      166.888     -52.635     -18.993
  H      165.207     -52.629     -20.158
  H      166.641     -51.871     -20.893
  H      165.740     -51.028     -19.595
  P      168.220     -51.857     -18.554
  C      167.343     -49.888     -17.087
  O      167.897     -51.195     -17.130
  C      167.920     -49.101     -15.904
  O      167.331     -47.767     -15.900
  C      167.614     -49.726     -14.533
  O      168.678     -49.364     -13.637
  C      166.344     -48.992     -14.136
  O      166.061     -49.173     -12.768
  C      166.707     -47.587     -14.609
  N      164.245     -43.654     -12.463
  C      165.402     -44.272     -12.144
  N      166.000     -45.305     -12.769
  C      165.291     -45.684     -13.847
  C      164.101     -45.143     -14.302
  C      163.568     -44.079     -13.556
  N      162.386     -43.452     -13.875
  N      163.670     -45.803     -15.441
  C      164.588     -46.722     -15.665
  N      165.579     -46.693     -14.725
  O      168.263     -50.609     -19.555
  O      169.478     -52.658     -18.604
  H      165.877     -50.116     -12.572
  H      168.832     -50.816     -20.320
  H      165.914     -43.888     -11.265
  H      164.577     -47.435     -16.481
  H      167.441     -47.112     -13.948
  H      165.482     -49.380     -14.689
  H      167.516     -50.814     -14.564
  H      168.997     -48.970     -16.054
  H      166.256     -49.976     -16.980
  H      167.572     -49.363     -18.019
  H      162.064     -42.707     -13.278
  H      161.861     -43.770     -14.676
  P      169.666     -50.512     -13.093
  C      171.757     -50.572     -14.663
  O      171.175     -50.106     -13.455
  O      169.388     -51.708     -14.126
  O      169.427     -50.960     -11.689
  H      169.558     -52.563     -13.688
  H      172.760     -50.207     -14.740
  H      171.184     -50.218     -15.495
  H      171.766     -51.642     -14.665

 6  7  8  9  10  11  12  13  14  15  25  28  32  33  34  35 0
 6-311+G(2d,p)
 ****
 36  37  40 0
 6-311+G(2d,p)
 ****
 1  2  3  4  5  16  17  18  19  20  21  22  23  24 0
 3-21G
 ****
 26  27  29  30  31  38  39 41  42  43  44  45  46  47  48 0
 3-21G
 ****


