%nproc=1
%NoSave
%Mem=1900MB
#P OB98/GEN NMR

erre ene a

0 1
  C     1520.731    -890.760     441.799
  O     1521.243    -891.640     442.798
  H     1520.788    -889.730     442.177
  H     1519.661    -890.990     441.628
  H     1521.276    -890.840     440.869
  P     1521.680    -893.110     442.358
  C     1523.880    -892.770     443.661
  O     1522.767    -893.650     443.413
  C     1524.807    -893.360     444.735
  O     1525.021    -894.780     444.471
  C     1526.211    -892.700     444.734
  O     1526.297    -891.510     445.513
  C     1527.073    -893.830     445.301
  O     1527.123    -893.760     446.747
  C     1526.372    -895.090     444.831
  N     1529.331    -898.900     443.139
  C     1529.043    -898.550     444.474
  N     1529.662    -899.280     445.414
  N     1528.234    -897.550     444.756
  C     1527.808    -896.870     443.699
  C     1528.037    -897.120     442.377
  C     1528.847    -898.230     441.994
  O     1529.146    -898.650     440.875
  N     1527.448    -896.170     441.545
  C     1526.934    -895.310     442.383
  N     1527.060    -895.730     443.710
  O     1522.560    -892.870     441.042
  O     1520.545    -894.060     442.080
  H     1527.670    -892.990     446.991
  H     1522.457    -893.620     440.449
  H     1529.932    -899.710     442.957
  H     1526.427    -894.390     442.127
  H     1526.335    -895.850     445.639
  H     1528.089    -893.740     444.947
  H     1530.340    -900.000     445.234
  H     1526.543    -892.490     443.684
  H     1529.617    -898.920     446.377
  H     1524.351    -893.290     445.718
  H     1523.459    -891.830     444.004
  H     1524.453    -892.590     442.740
  P     1526.925    -890.200     444.916
  C     1525.554    -888.800     446.675
  O     1526.782    -889.020     446.002
  O     1525.878    -889.750     443.774
  O     1528.326    -890.320     444.395
  H     1526.204    -890.030     442.902
  H     1525.660    -887.978     447.351
  H     1525.285    -889.679     447.222
  H     1524.790    -888.577     445.960

 6  7  8  9  10  11  12  13  14  15  26  29  33  34 0
 6-311+G(2d,p)
 ****
 36  38  39  40  41 0
 6-311+G(2d,p)
 ****
 1  2  3  4  5  16  17  18  19  20  21  22  23  24  25 0
 3-21G
 ****
 27  28  30  31  32  35  37  42  43  44  45  46  47 0
 3-21G
 ****
 48  49 0
 3-21G
 ****


