%nproc=1
%NoSave
%Mem=1900MB
#P OB98/GEN NMR

erre ene a

0 1
  C     -322.086    -442.154      -5.297
  O     -322.928    -443.187      -5.770
  H     -322.422    -441.206      -5.726
  H     -321.055    -442.334      -5.616
  H     -322.134    -442.083      -4.208
  P     -322.748    -444.663      -5.174
  C     -324.249    -444.172      -3.135
  O     -322.958    -444.556      -3.591
  C     -324.602    -444.945      -1.866
  O     -324.825    -446.336      -2.178
  C     -323.510    -444.926      -0.809
  O     -323.475    -443.687      -0.127
  C     -323.921    -446.112       0.050
  O     -324.969    -445.750       0.961
  C     -324.437    -447.103      -1.016
  N     -323.453    -448.128      -1.366
  C     -323.798    -449.444      -1.076
  O     -324.852    -449.762      -0.524
  N     -322.869    -450.391      -1.410
  C     -321.614    -450.150      -1.894
  O     -320.785    -451.033      -2.095
  C     -321.294    -448.739      -2.157
  C     -322.214    -447.809      -1.887
  O     -321.515    -445.387      -5.600
  O     -324.072    -445.428      -5.659
  H     -325.159    -446.549       1.493
  H     -323.845    -446.028      -6.395
  H     -323.095    -451.351      -1.195
  H     -320.319    -448.507      -2.553
  H     -321.992    -446.764      -2.068
  H     -325.344    -447.609      -0.657
  H     -323.097    -446.498       0.647
  H     -322.541    -445.141      -1.266
  H     -325.542    -444.534      -1.465
  H     -324.979    -444.397      -3.918
  H     -324.253    -443.091      -2.947
  P     -322.325    -443.402       0.950
  C     -320.767    -442.665      -0.951
  O     -320.913    -443.489       0.198
  O     -322.424    -444.196       2.212
  O     -322.475    -441.836       1.257
  H     -322.674    -441.709       2.200
  H     -319.792    -442.804      -1.368
  H     -320.893    -441.639      -0.673
  H     -321.507    -442.931      -1.677

 6  7  8  9  10  11  12  13  14  15  16  26  31  32  33  34  35 0
 6-311+G(2d,p)
 ****
 36  37 0
 6-311+G(2d,p)
 ****
 1  2  3  4  5  17  18  19  20  21  22  23  24  25 0
 3-21G
 ****
 27  28  29  30  38  39  40  41  42  43  44  45 0
 3-21G
 ****


