%nproc=1
%NoSave
%Mem=1900MB
#P OB98/GEN NMR

erre ene a

0 1
  C     -151.560     268.454      93.610
  O     -151.276     269.201      94.779
  H     -151.207     267.429      93.758
  H     -151.037     268.882      92.753
  H     -152.638     268.428      93.418
  P     -151.783     270.721      94.862
  C     -149.354     271.551      95.018
  O     -150.634     271.544      95.632
  C     -148.424     272.534      95.730
  O     -148.912     273.882      95.518
  C     -148.328     272.303      97.243
  O     -146.982     272.550      97.657
  C     -149.242     273.364      97.822
  O     -148.879     273.733      99.151
  C     -149.089     274.496      96.810
  N     -151.016     278.725      98.796
  C     -149.767     278.157      98.951
  N     -148.910     278.788      99.779
  N     -149.394     277.058      98.350
  C     -150.349     276.534      97.540
  C     -151.618     277.005      97.305
  C     -152.026     278.214      97.986
  O     -153.122     278.760      97.890
  N     -152.297     276.183      96.435
  C     -151.435     275.217      96.153
  N     -150.244     275.382      96.807
  O     -153.156     270.906      95.426
  O     -151.677     271.252      93.360
  H     -149.560     274.364      99.470
  H     -152.552     271.243      92.928
  H     -151.254     279.568      99.292
  H     -151.631     274.381      95.496
  H     -148.210     275.126      97.020
  H     -150.277     272.993      97.841
  H     -149.122     279.647     100.266
  H     -148.629     271.292      97.542
  H     -147.980     278.401      99.896
  H     -147.432     272.477      95.264
  H     -149.473     271.855      93.970
  H     -148.928     270.542      95.048
  P     -145.816     271.595      97.101
  C     -145.850     270.265      99.313
  O     -145.048     270.962      98.365
  O     -144.934     272.197      96.055
  O     -146.630     270.341      96.522
  H     -146.126     269.956      95.781
  H     -145.229     269.893     100.101
  H     -146.342     269.446      98.831
  H     -146.582     270.931      99.720

 6  7  8  9  10  11  12  13  14  15  26  29  33  34 0
 6-311+G(2d,p)
 ****
 36  38  39  40  41 0
 6-311+G(2d,p)
 ****
 1  2  3  4  5  16  17  18  19  20  21  22  23  24  25 0
 3-21G
 ****
 27  28  30  31  32  35  37  42  43  44  45  46  47 0
 3-21G
 ****
 48  49 0
 3-21G
 ****


