%nproc=1
%NoSave
%Mem=1900MB
#P OB98/GEN NMR

erre ene a

0 1
  C     -278.357    -151.202    -283.995
  O     -278.169    -150.137    -283.086
  H     -278.254    -152.145    -283.448
  H     -277.607    -151.175    -284.786
  H     -279.360    -151.160    -284.424
  P     -278.157    -148.638    -283.662
  C     -275.578    -148.373    -283.786
  O     -276.791    -148.553    -284.510
  C     -274.551    -147.649    -284.658
  O     -274.222    -148.426    -285.827
  C     -275.009    -146.294    -285.203
  O     -275.026    -145.266    -284.228
  C     -273.945    -146.073    -286.266
  O     -272.716    -145.668    -285.644
  C     -273.814    -147.492    -286.871
  N     -274.633    -147.681    -288.067
  C     -273.999    -147.461    -289.299
  O     -272.817    -147.122    -289.344
  N     -274.735    -147.592    -290.456
  C     -275.993    -147.893    -290.390
  N     -276.688    -147.957    -291.561
  C     -276.703    -148.149    -289.115
  C     -275.970    -148.031    -288.007
  O     -278.359    -147.542    -282.665
  O     -279.256    -148.650    -284.828
  H     -272.021    -145.709    -286.330
  H     -279.294    -147.740    -285.210
  H     -277.753    -148.395    -289.119
  H     -276.417    -148.184    -287.034
  H     -272.773    -147.721    -287.113
  H     -274.215    -145.296    -286.991
  H     -275.984    -146.386    -285.696
  H     -273.625    -147.552    -284.066
  H     -276.183    -147.735    -292.409
  H     -275.213    -149.356    -283.484
  H     -277.701    -147.917    -291.577
  H     -275.760    -147.769    -282.891
  P     -276.215    -144.188    -284.293
  C     -274.899    -142.483    -285.756
  O     -276.008    -143.360    -285.652
  O     -275.815    -143.144    -283.143
  O     -277.601    -144.739    -284.115
  H     -276.255    -143.367    -282.299
  H     -274.906    -142.012    -286.717
  H     -273.992    -143.039    -285.638
  H     -274.962    -141.736    -284.992

 6  7  8  9  10  11  12  13  14  15  16  26  30  31  32  33  35 0
 6-311+G(2d,p)
 ****
 37  38 0
 6-311+G(2d,p)
 ****
 1  2  3  4  5  17  18  19  20  21  22  23  24  25 0
 3-21G
 ****
 27  28  29  34  36  39  40  41  42  43  44  45  46 0
 3-21G
 ****


