%nproc=1
%NoSave
%Mem=1900MB
#P OB98/GEN NMR

erre ene a

0 1
  C       23.911     256.170     930.097
  O       22.578     255.724     929.903
  P       21.643     256.356     928.769
  C       21.268     254.222     927.371
  O       20.696     255.142     928.294
  C       20.514     252.898     927.416
  O       20.796     252.248     928.673
  C       18.984     252.991     927.346
  O       18.459     253.100     926.035
  C       18.590     251.648     927.945
  O       18.729     250.610     926.955
  C       19.627     251.474     929.060
  N       16.836     250.258     933.170
  C       17.138     249.561     932.056
  N       17.875     249.960     930.994
  C       18.340     251.213     931.189
  C       18.096     252.035     932.280
  C       17.306     251.508     933.305
  N       16.992     252.210     934.461
  N       18.745     253.257     932.117
  C       19.348     253.165     930.945
  N       19.151     251.939     930.354
  O       22.374     257.075     927.688
  O       20.635     257.305     929.573
  H       17.971     250.712     926.344
  H       20.197     257.929     928.967
  H       16.744     248.538     931.995
  H       19.943     253.947     930.498
  H       19.946     250.430     929.172
  H       17.544     251.635     928.295
  H       18.612     253.810     927.993
  H       20.889     252.251     926.609
  H       22.311     254.057     927.659
  H       16.522     251.711     935.198
  H       17.494     253.085     934.633
  H       21.262     254.651     926.354
  P       17.098     253.955     925.852
  C       17.677     254.052     923.306
  O       16.708     253.821     924.295
  O       17.172     255.348     926.385
  O       16.001     253.048     926.589
  H       15.810     252.187     926.156
  H       17.267     253.764     922.328
  H       18.580     253.465     923.485
  H       17.937     255.123     923.257
  H       24.358     255.621     930.900
  H       23.907     257.213     930.337
  H       24.474     256.013     929.201

 3  4  5  6  7  8  9  10  11  12  22  25  29  30  31  32 0
 6-311+G(2d,p)
 ****
 33  36  37 0
 6-311+G(2d,p)
 ****
 1  2  13  14  15  16  17  18  19  20  21  23  24  26 0
 3-21G
 ****
 27  28  34  35  38  39  40  41  42  43  44  45  46  47  48 0
 3-21G
 ****


