%nproc=1
%NoSave
%Mem=1900MB
#P OB98/GEN NMR

erre ene a

0 1
  C      290.336    -649.223    -870.267
  O      290.926    -647.990    -869.905
  P      290.007    -646.673    -869.981
  C      291.830    -645.510    -868.521
  O      290.931    -645.401    -869.626
  C      292.697    -644.260    -868.397
  O      293.683    -644.248    -869.490
  C      291.905    -642.935    -868.487
  O      292.549    -641.966    -867.638
  C      292.107    -642.500    -869.919
  O      291.927    -641.082    -870.064
  C      293.541    -642.983    -870.180
  N      294.838    -640.586    -874.430
  C      294.912    -640.153    -873.118
  N      295.308    -638.868    -872.954
  N      294.647    -640.902    -872.105
  C      294.261    -642.159    -872.433
  C      294.169    -642.712    -873.693
  C      294.478    -641.874    -874.825
  O      294.413    -642.199    -876.015
  N      293.783    -644.033    -873.643
  C      293.574    -644.267    -872.357
  N      293.843    -643.146    -871.598
  O      289.061    -646.809    -868.681
  O      289.209    -646.553    -871.238
  H      292.489    -640.665    -869.393
  H      288.154    -647.080    -868.970
  H      295.072    -639.978    -875.192
  H      293.258    -645.209    -871.923
  H      294.273    -642.288    -869.773
  H      291.395    -643.003    -870.548
  H      295.475    -638.216    -873.712
  H      290.850    -643.030    -868.205
  H      295.316    -638.507    -871.998
  H      293.266    -644.333    -867.471
  H      292.456    -646.380    -868.654
  H      291.243    -645.649    -867.596
  P      291.633    -641.367    -866.432
  C      293.651    -639.902    -865.705
  O      292.276    -639.967    -866.048
  O      291.998    -642.326    -865.204
  O      290.172    -641.367    -866.743
  H      291.264    -642.339    -864.568
  H      294.181    -639.290    -866.432
  H      294.115    -640.893    -865.636
  H      293.725    -639.443    -864.697
  H      291.058    -650.006    -870.169
  H      289.999    -649.173    -871.281
  H      289.504    -649.423    -869.624

 3  4  5  6  7  8  9  10  11  12  23  26  30  31 0
 6-311+G(2d,p)
 ****
 33  35  36  37  38 0
 6-311+G(2d,p)
 ****
 1  2  13  14  15  16  17  18  19  20  21  22  24  25 0
 3-21G
 ****
 27  28  29  32  34  39  40  41  42  43  44  45  46  47  48  49 0
 3-21G
 ****


