%nproc=1
%NoSave
%Mem=1900MB
#P OB98/GEN NMR

erre ene a

0 1
  C     -738.826    -316.560     543.136
  O     -739.065    -316.573     544.528
  H     -738.888    -317.576     542.742
  H     -739.590    -315.945     542.654
  H     -737.841    -316.137     542.915
  P     -737.908    -317.158     545.475
  C     -737.418    -315.554     547.454
  O     -737.152    -315.890     546.102
  C     -738.209    -314.247     547.543
  O     -739.542    -314.465     546.970
  C     -738.398    -313.712     548.981
  O     -738.291    -312.289     548.957
  C     -739.835    -314.096     549.317
  O     -740.417    -313.252     550.298
  C     -740.495    -313.968     547.931
  N     -745.493    -313.705     548.768
  C     -744.561    -312.750     548.630
  N     -743.242    -312.915     548.364
  C     -742.951    -314.204     548.145
  C     -743.805    -315.290     548.252
  C     -745.145    -315.000     548.591
  N     -746.113    -315.982     548.792
  N     -743.113    -316.472     548.010
  C     -741.873    -316.100     547.804
  N     -741.721    -314.740     547.880
  O     -736.858    -317.733     544.411
  O     -738.339    -318.199     546.453
  H     -741.332    -313.562     550.474
  H     -737.089    -318.655     544.183
  H     -744.888    -311.726     548.782
  H     -741.038    -316.770     547.638
  H     -740.733    -312.935     547.670
  H     -739.867    -315.131     549.679
  H     -737.683    -314.130     549.711
  H     -737.708    -313.500     546.933
  H     -736.468    -315.437     547.991
  H     -747.004    -315.674     549.148
  H     -745.817    -316.947     548.772
  H     -737.982    -316.375     547.929
  P     -736.888    -311.651     549.400
  C     -736.301    -310.161     547.348
  O     -736.022    -311.340     548.077
  O     -736.103    -312.898     550.053
  O     -737.002    -310.507     550.352
  H     -735.515    -312.589     550.771
  H     -735.646    -310.100     546.504
  H     -736.152    -309.309     547.978
  H     -737.316    -310.182     547.010

 6  7  8  9  10  11  12  13  14  15  25  28  32  33  34  35 0
 6-311+G(2d,p)
 ****
 36  39  40 0
 6-311+G(2d,p)
 ****
 1  2  3  4  5  16  17  18  19  20  21  22  23  24 0
 3-21G
 ****
 26  27  29  30  31  37  38  41  42  43  44  45  46  47 0
 3-21G
 ****
 48 0
 3-21G
 ****


