%nproc=1
%NoSave
%Mem=1900MB
#P OB98/GEN NMR

erre ene a

0 1
  C     -313.942     682.269    -244.716
  O     -314.392     682.449    -246.038
  H     -313.731     683.252    -244.274
  H     -313.015     681.683    -244.711
  H     -314.700     681.770    -244.107
  P     -314.793     681.113    -246.845
  C     -313.322     679.726    -248.496
  O     -313.410     680.390    -247.232
  C     -312.088     678.832    -248.527
  O     -310.898     679.647    -248.413
  C     -312.011     677.848    -247.373
  O     -312.843     676.708    -247.590
  C     -310.522     677.503    -247.365
  O     -310.200     676.499    -248.325
  C     -309.883     678.836    -247.768
  N     -306.008     678.982    -244.444
  C     -306.251     678.192    -245.517
  N     -307.312     678.232    -246.362
  C     -308.161     679.218    -246.019
  C     -308.038     680.097    -244.950
  C     -306.902     679.949    -244.146
  N     -306.670     680.731    -243.022
  N     -309.141     680.946    -244.893
  C     -309.886     680.590    -245.917
  N     -309.331     679.545    -246.628
  O     -315.327     681.688    -248.247
  O     -315.809     680.242    -246.174
  H     -310.421     676.871    -249.206
  H     -316.295     681.778    -248.219
  H     -305.513     677.427    -245.724
  H     -310.843     681.039    -246.185
  H     -309.070     678.704    -248.485
  H     -310.213     677.133    -246.379
  H     -312.286     678.324    -246.421
  H     -312.055     678.321    -249.491
  H     -313.237     680.481    -249.285
  H     -314.238     679.137    -248.651
  H     -305.846     680.555    -242.483
  H     -307.382     681.383    -242.735
  P     -313.311     675.845    -246.327
  C     -312.180     673.754    -245.233
  O     -312.030     675.079    -245.757
  O     -314.199     674.668    -246.971
  O     -314.085     676.609    -245.293
  H     -315.135     674.874    -246.888
  H     -311.230     673.394    -244.897
  H     -312.556     673.108    -245.999
  H     -312.866     673.771    -244.412

 6  7  8  9  10  11  12  13  14  15  25  28  32  33  34  35 0
 6-311+G(2d,p)
 ****
 36  37  40 0
 6-311+G(2d,p)
 ****
 1  2  3  4  5  16  17  18  19  20  21  22  23  24 0
 3-21G
 ****
 26  27  29  30  31  38  39 41  42  43  44  45  46  47  48 0
 3-21G
 ****


