%nproc=1
%NoSave
%Mem=1900MB
#P OB98/GEN NMR

erre ene a

0 1
  C       97.590     -93.415     -28.874
  O       97.089     -94.508     -29.626
  P       97.905     -94.945     -30.939
  C       96.379     -93.571     -32.529
  O       97.691     -93.788     -32.031
  C       96.422     -92.945     -33.925
  O       97.074     -91.646     -33.839
  C       97.188     -93.773     -34.972
  O       96.520     -93.575     -36.224
  C       98.554     -93.107     -34.967
  O       99.348     -93.409     -36.101
  C       98.143     -91.644     -34.812
  N      102.025     -88.698     -36.363
  C      101.067     -89.361     -37.049
  N      100.059     -90.120     -36.568
  C      100.092     -90.152     -35.225
  C      101.016     -89.544     -34.390
  C      102.021     -88.786     -35.012
  N      103.005     -88.119     -34.306
  N      100.743     -89.826     -33.066
  C       99.672     -90.592     -33.100
  N       99.231     -90.799     -34.378
  O       97.037     -96.158     -31.516
  O       99.329     -95.339     -30.695
  H       99.634     -94.343     -36.068
  H       97.608     -96.864     -31.873
  H      101.115     -89.268     -38.131
  H       99.189     -91.032     -32.237
  H       97.744     -91.230     -35.747
  H       99.110     -93.447     -34.086
  H       97.213     -94.842     -34.744
  H       95.392     -92.773     -34.260
  H       95.846     -92.884     -31.863
  H      103.786     -87.773     -34.846
  H      103.113     -88.358     -33.329
  H       95.832     -94.520     -32.540
  P       96.434     -94.800     -37.258
  C       97.960     -93.578     -38.928
  O       97.809     -94.704     -38.085
  O       95.380     -94.225     -38.321
  O       96.072     -96.122     -36.675
  H       95.627     -93.333     -38.624
  H       98.970     -93.589     -39.348
  H       97.821     -92.654     -38.359
  H       97.236     -93.627     -39.747
  H       96.951     -93.237     -28.034
  H       97.620     -92.541     -29.491
  H       98.577     -93.642     -28.529

 3  4  5  6  7  8  9  10  11  12  22  25  29  30  31  32 0
 6-311+G(2d,p)
 ****
 33  36  37 0
 6-311+G(2d,p)
 ****
 1  2  13  14  15  16  17  18  19  20  21  23  24  26 0
 3-21G
 ****
 27  28  34  35  38  39  40  41  42  43  44  45  46  47  48 0
 3-21G
 ****


