%nproc=1
%NoSave
%Mem=1900MB
#P OB98/GEN NMR

erre ene a

0 1
  C      317.112      -0.943     -23.263
  O      316.531       0.322     -23.603
  P      316.381       0.810     -25.123
  C      315.448      -1.039     -26.656
  O      315.135       0.049     -25.789
  C      314.476      -1.115     -27.841
  O      313.164      -1.520     -27.403
  C      314.283       0.200     -28.586
  O      315.374       0.446     -29.457
  C      312.947      -0.044     -29.281
  O      313.137      -0.820     -30.478
  C      312.188      -0.858     -28.229
  N      307.590       1.370     -28.024
  C      308.176       0.595     -28.960
  N      309.406       0.043     -28.947
  C      310.045       0.339     -27.799
  C      309.575       1.122     -26.754
  C      308.283       1.654     -26.896
  N      307.694       2.459     -25.947
  N      310.523       1.226     -25.758
  C      311.541       0.503     -26.188
  N      311.298      -0.051     -27.415
  O      317.644       0.729     -25.920
  O      315.875       2.325     -25.018
  H      313.697      -0.297     -31.081
  H      316.168       2.827     -25.801
  H      307.574       0.393     -29.845
  H      312.467       0.351     -25.646
  H      311.583      -1.649     -28.689
  H      312.447       0.886     -29.571
  H      314.178       1.023     -27.874
  H      314.844      -1.894     -28.524
  H      315.392      -1.970     -26.079
  H      306.776       2.829     -26.138
  H      308.222       2.713     -25.124
  H      316.471      -0.909     -27.022
  P      316.603       1.353     -28.969
  C      319.024       0.898     -28.252
  O      317.718       0.364     -28.384
  O      316.245       2.502     -28.088
  O      317.266       1.855     -30.339
  H      317.682       2.727     -30.195
  H      319.521       0.880     -29.227
  H      319.590       0.275     -27.554
  H      318.993       1.920     -27.871
  H      317.111      -1.061     -22.200
  H      318.118      -0.983     -23.626
  H      316.541      -1.730     -23.710

 3  4  5  6  7  8  9  10  11  12  22  25  29  30  31  32 0
 6-311+G(2d,p)
 ****
 33  36  37 0
 6-311+G(2d,p)
 ****
 1  2  13  14  15  16  17  18  19  20  21  23  24  26 0
 3-21G
 ****
 27  28  34  35  38  39  40  41  42  43  44  45  46  47  48 0
 3-21G
 ****


