%nproc=1
%NoSave
%Mem=1900MB
#P OB98/GEN NMR

erre ene a

0 1
  C       67.001    -288.132    -491.897
  O       66.351    -286.879    -491.943
  P       66.426    -285.961    -493.255
  C       68.123    -284.290    -492.248
  O       66.793    -284.488    -492.725
  C       68.401    -282.804    -492.012
  O       68.502    -282.102    -493.259
  C       67.315    -282.092    -491.212
  O       67.414    -282.403    -489.838
  C       67.604    -280.638    -491.562
  O       68.655    -280.105    -490.742
  C       68.061    -280.743    -493.039
  N       67.012    -280.346    -493.973
  C       67.318    -279.273    -494.820
  O       68.405    -278.705    -494.728
  N       66.365    -278.855    -495.720
  C       65.209    -279.433    -495.740
  N       64.305    -278.967    -496.644
  C       64.834    -280.553    -494.846
  C       65.776    -280.948    -493.990
  O       65.247    -286.044    -494.165
  O       67.796    -286.436    -493.949
  H       68.264    -279.974    -489.850
  H       67.694    -287.322    -494.376
  H       63.852    -280.994    -494.891
  H       65.586    -281.765    -493.289
  H       68.940    -280.102    -493.214
  H       66.722    -280.001    -491.420
  H       66.324    -282.372    -491.603
  H       69.364    -282.724    -491.492
  H       64.586    -278.175    -497.221
  H       68.812    -284.669    -493.011
  H       63.357    -279.321    -496.721
  H       68.267    -284.871    -491.335
  P       66.204    -283.157    -489.097
  C       65.922    -281.269    -487.380
  O       66.174    -282.650    -487.582
  O       66.173    -284.636    -489.283
  O       64.899    -282.475    -489.728
  H       64.256    -283.173    -489.940
  H       65.601    -281.121    -486.344
  H       65.140    -280.916    -488.053
  H       66.846    -280.703    -487.552
  H       66.833    -288.586    -490.943
  H       68.052    -287.994    -492.046
  H       66.611    -288.764    -492.667

 3  4  5  6  7  8  9  10  11  12  13  23  27  28  29  30  32 0
 6-311+G(2d,p)
 ****
 34  35 0
 6-311+G(2d,p)
 ****
 1  2  14  15  16  17  18  19  20  21  22  24  25  26 0
 3-21G
 ****
 31  33  36  37  38  39  40  41  42  43  44  45  46 0
 3-21G
 ****


