%nproc=1
%NoSave
%Mem=1900MB
#P OB98/GEN NMR

erre ene a

0 1
  C      184.148     190.314    -144.965
  O      185.140     191.269    -144.627
  P      186.673     190.788    -144.663
  C      187.875     192.465    -146.246
  O      187.571     192.090    -144.904
  C      188.981     193.522    -146.258
  O      188.484     194.763    -145.707
  C      190.205     193.169    -145.425
  O      191.015     192.205    -146.083
  C      190.849     194.544    -145.269
  O      191.562     194.893    -146.470
  C      189.615     195.455    -145.106
  N      190.850     198.326    -141.045
  C      191.371     198.250    -142.291
  N      191.002     197.449    -143.309
  C      189.977     196.662    -142.945
  C      189.358     196.606    -141.711
  C      189.829     197.489    -140.725
  N      189.294     197.558    -139.456
  N      188.358     195.654    -141.702
  C      188.365     195.152    -142.919
  N      189.313     195.739    -143.708
  O      186.775     189.996    -146.048
  O      187.087     189.936    -143.504
  H      191.884     195.813    -146.358
  H      187.396     189.245    -145.978
  H      192.195     198.936    -142.497
  H      187.700     194.372    -143.273
  H      189.731     196.412    -145.621
  H      191.553     194.601    -144.438
  H      189.904     192.786    -144.445
  H      189.271     193.696    -147.304
  H      186.987     192.879    -146.726
  H      189.788     198.113    -138.773
  H      188.635     196.840    -139.177
  H      188.181     191.573    -146.805
  P      191.921     191.252    -145.166
  C      192.245     189.169    -146.635
  O      192.796     190.413    -146.226
  O      190.851     190.173    -144.664
  O      192.691     191.951    -144.102
  H      190.311     189.820    -145.392
  H      192.902     188.729    -147.391
  H      191.252     189.314    -147.074
  H      192.182     188.486    -145.782
  H      183.181     190.766    -144.900
  H      184.202     189.488    -144.287
  H      184.313     189.967    -145.964

 3  4  5  6  7  8  9  10  11  12  22  25  29  30  31  32 0
 6-311+G(2d,p)
 ****
 33  36  37 0
 6-311+G(2d,p)
 ****
 1  2  13  14  15  16  17  18  19  20  21  23  24  26 0
 3-21G
 ****
 27  28  34  35  38  39  40  41  42  43  44  45  46  47  48 0
 3-21G
 ****


