%nproc=1
%NoSave
%Mem=1900MB
#P OB98/GEN NMR

erre ene a

0 1
  C     -418.469    -148.168     951.054
  O     -419.207    -149.369     951.037
  P     -420.788    -149.372     951.344
  C     -420.894    -151.942     951.034
  O     -421.095    -150.844     951.932
  C     -420.840    -153.250     951.806
  O     -419.523    -153.485     952.362
  C     -421.810    -153.333     952.987
  O     -423.127    -153.573     952.535
  C     -421.189    -154.456     953.798
  O     -421.599    -155.746     953.297
  C     -419.678    -154.255     953.572
  N     -419.027    -153.611     954.714
  C     -418.120    -154.395     955.420
  O     -417.930    -155.589     955.111
  N     -417.493    -153.864     956.537
  C     -417.759    -152.629     956.884
  N     -417.100    -152.156     957.978
  C     -418.738    -151.778     956.184
  C     -419.336    -152.320     955.113
  O     -421.660    -148.926     950.217
  O     -420.897    -148.442     952.649
  H     -422.547    -155.844     953.508
  H     -420.784    -147.483     952.424
  H     -418.952    -150.778     956.521
  H     -420.067    -151.766     954.531
  H     -419.174    -155.215     953.388
  H     -421.488    -154.433     954.859
  H     -421.759    -152.393     953.566
  H     -421.047    -154.080     951.101
  H     -416.478    -152.792     958.459
  H     -419.931    -151.780     950.521
  H     -417.287    -151.234     958.367
  H     -421.694    -151.946     950.287
  P     -424.145    -152.344     952.383
  C     -426.313    -153.684     952.794
  O     -425.449    -152.664     953.273
  O     -424.438    -151.909     950.979
  O     -423.436    -151.142     953.189
  H     -423.496    -150.329     952.674
  H     -426.926    -154.036     953.615
  H     -425.739    -154.521     952.403
  H     -426.949    -153.277     952.007
  H     -417.444    -148.376     950.827
  H     -418.536    -147.722     952.024
  H     -418.867    -147.495     950.324

 3  4  5  6  7  8  9  10  11  12  13  23  27  28  29  30  32 0
 6-311+G(2d,p)
 ****
 34  35 0
 6-311+G(2d,p)
 ****
 1  2  14  15  16  17  18  19  20  21  22  24  25  26 0
 3-21G
 ****
 31  33  36  37  38  39  40  41  42  43  44  45  46 0
 3-21G
 ****


