%nproc=1
%NoSave
%Mem=1900MB
#P OB98/GEN NMR

erre ene a

0 1
  C     -868.889     195.004    -489.813
  O     -868.430     194.160    -490.848
  H     -868.608     194.556    -488.853
  H     -869.983     195.087    -489.848
  H     -868.431     195.994    -489.884
  P     -868.548     194.674    -492.371
  C     -866.029     195.204    -492.613
  O     -867.126     194.405    -493.061
  C     -864.695     194.473    -492.854
  O     -864.524     193.469    -491.800
  C     -864.612     193.722    -494.210
  O     -863.230     193.724    -494.594
  C     -865.069     192.333    -493.803
  O     -864.843     191.373    -494.798
  C     -864.314     192.199    -492.467
  N     -864.742     191.090    -491.623
  C     -864.073     189.870    -491.751
  O     -863.139     189.674    -492.541
  N     -864.517     188.857    -490.939
  C     -865.527     188.934    -490.029
  O     -865.856     188.010    -489.304
  C     -866.200     190.249    -489.933
  C     -865.772     191.243    -490.710
  O     -869.091     196.055    -492.548
  O     -869.485     193.569    -493.066
  H     -870.390     193.927    -493.149
  H     -865.608     191.359    -495.409
  H     -864.029     187.980    -491.027
  H     -867.015     190.331    -489.233
  H     -866.252     192.217    -490.670
  H     -863.247     192.106    -492.671
  H     -866.156     192.335    -493.632
  H     -865.206     194.201    -494.988
  H     -863.880     195.192    -492.737
  H     -866.154     195.399    -491.546
  H     -866.027     196.161    -493.157
  P     -862.716     193.300    -496.065
  C     -862.088     195.639    -496.985
  O     -861.609     194.374    -496.540
  O     -863.825     193.098    -497.056
  O     -861.899     191.944    -495.845
  H     -861.907     191.420    -496.665
  H     -861.260     196.254    -497.269
  H     -862.630     196.114    -496.194
  H     -862.734     195.500    -497.826

 6  7  8  9  10  11  12  13  14  15  16  27  31  32  33  34  35 0
 6-311+G(2d,p)
 ****
 36  37 0
 6-311+G(2d,p)
 ****
 1  2  3  4  5  17  18  19  20  21  22  23  24  25 0
 3-21G
 ****
 26  28  29  30  38  39  40  41  42  43  44  45 0
 3-21G
 ****


