%nproc=1
%NoSave
%Mem=1900MB
#P OB98/GEN NMR

erre ene a

0 1
  C     1189.195    -304.903     869.703
  O     1188.048    -305.310     870.442
  P     1188.305    -306.114     871.811
  C     1187.195    -304.790     873.784
  O     1188.340    -305.002     872.967
  C     1186.494    -303.504     873.363
  O     1185.990    -303.614     872.000
  C     1185.290    -303.158     874.201
  O     1185.663    -302.648     875.479
  C     1184.566    -302.143     873.315
  O     1185.181    -300.852     873.434
  C     1184.840    -302.726     871.911
  N     1183.685    -303.424     871.341
  C     1183.217    -302.919     870.124
  O     1183.708    -301.928     869.569
  N     1182.143    -303.561     869.597
  C     1181.478    -304.610     870.151
  O     1180.528    -305.158     869.617
  C     1182.000    -305.074     871.443
  C     1183.050    -304.468     871.977
  O     1189.834    -306.558     871.633
  O     1187.340    -307.238     872.013
  H     1190.365    -305.888     871.163
  H     1184.589    -300.224     872.976
  H     1181.785    -303.219     868.721
  H     1181.478    -305.896     871.929
  H     1183.443    -304.796     872.938
  H     1185.137    -301.928     871.218
  H     1183.508    -302.027     873.562
  H     1184.652    -304.041     874.338
  H     1187.222    -302.687     873.388
  H     1187.497    -304.713     874.833
  H     1186.531    -305.650     873.694
  P     1185.403    -303.609     876.755
  C     1187.620    -303.229     878.084
  O     1186.842    -304.082     877.284
  O     1184.807    -304.911     876.052
  O     1184.506    -302.996     877.784
  H     1185.296    -305.163     875.252
  H     1188.357    -303.827     878.618
  H     1187.017    -302.702     878.828
  H     1188.139    -302.500     877.456
  H     1188.885    -304.382     868.821
  H     1189.765    -305.765     869.426
  H     1189.797    -304.256     870.306

 3  4  5  6  7  8  9  10  11  12  13  24  28  29  30  31  32 0
 6-311+G(2d,p)
 ****
 33  34 0
 6-311+G(2d,p)
 ****
 1  2  14  15  16  17  18  19  20  21  22  23  25  26  27 0
 3-21G
 ****
 35  36  37  38  39  40  41  42  43  44  45 0
 3-21G
 ****


