%nproc=1
%NoSave
%Mem=1900MB
#P OB98/GEN NMR

erre ene a

0 1
  C      520.292     146.027    -778.429
  O      520.677     144.930    -777.621
  H      519.474     145.729    -779.099
  H      519.945     146.834    -777.785
  H      521.142     146.385    -779.016
  P      521.207     143.625    -778.408
  C      518.915     142.981    -779.427
  O      520.239     143.426    -779.679
  C      518.085     143.044    -780.708
  O      516.750     142.549    -780.411
  C      517.944     144.471    -781.300
  O      518.268     144.467    -782.698
  C      516.472     144.788    -781.138
  O      515.959     145.589    -782.213
  C      515.828     143.401    -781.104
  N      510.936     144.789    -781.584
  C      511.894     144.553    -782.512
  N      513.148     144.081    -782.326
  C      513.374     143.837    -781.023
  C      512.490     144.008    -779.968
  C      511.220     144.521    -780.276
  N      510.274     144.824    -779.330
  N      513.089     143.646    -778.756
  C      514.313     143.310    -779.083
  N      514.542     143.423    -780.432
  O      520.796     142.425    -777.424
  O      522.667     143.630    -778.696
  H      516.249     145.159    -783.045
  H      521.615     141.960    -777.151
  H      511.609     144.753    -783.531
  H      515.095     143.025    -778.378
  H      515.684     142.987    -782.115
  H      516.317     145.322    -780.199
  H      518.569     145.204    -780.769
  H      518.531     142.365    -781.453
  H      518.451     143.629    -778.662
  H      509.439     145.299    -779.630
  H      510.520     144.735    -778.354
  H      518.954     141.957    -779.042
  P      519.804     144.810    -783.057
  C      519.345     147.143    -784.138
  O      519.965     146.412    -783.076
  O      519.912     144.395    -784.613
  O      520.801     144.076    -782.237
  H      520.625     143.739    -784.734
  H      519.540     148.188    -784.013
  H      518.289     146.973    -784.119
  H      519.742     146.815    -785.076

 6  7  8  9  10  11  12  13  14  15  25  28  32  33  34  35 0
 6-311+G(2d,p)
 ****
 36  39  40 0
 6-311+G(2d,p)
 ****
 1  2  3  4  5  16  17  18  19  20  21  22  23  24 0
 3-21G
 ****
 26  27  29  30  31  37  38  41  42  43  44  45  46  47  48 0
 3-21G
 ****


