%nproc=1
%NoSave
%Mem=1900MB
#P OB98/GEN NMR

erre ene a

0 1
  C      918.082     228.677    -618.697
  O      916.915     229.506    -618.604
  P      916.945     231.011    -618.036
  C      916.051     231.674    -620.369
  O      916.905     232.019    -619.296
  C      915.391     232.921    -620.966
  O      914.474     233.516    -620.010
  C      916.343     234.062    -621.310
  O      917.107     233.790    -622.482
  C      915.372     235.233    -621.451
  O      914.790     235.272    -622.763
  C      914.289     234.892    -620.407
  N      914.311     235.774    -619.263
  C      913.295     236.737    -619.181
  O      912.482     236.855    -620.099
  N      913.233     237.538    -618.070
  C      914.168     237.472    -617.170
  N      914.053     238.288    -616.085
  C      915.336     236.571    -617.287
  C      915.342     235.761    -618.335
  O      918.067     231.275    -617.091
  O      915.523     231.218    -617.324
  H      915.606     231.900    -616.633
  H      914.182     236.041    -622.781
  H      916.115     236.576    -616.530
  H      916.149     235.050    -618.487
  H      913.298     234.923    -620.875
  H      915.859     236.196    -621.284
  H      917.014     234.245    -620.459
  H      914.820     232.624    -621.854
  H      913.232     238.883    -616.031
  H      915.262     231.002    -620.001
  H      914.711     238.291    -615.323
  H      916.625     231.143    -621.141
  P      918.472     232.971    -622.277
  C      917.276     231.129    -623.674
  O      918.167     231.433    -622.614
  O      918.690     232.982    -620.686
  O      919.649     233.559    -622.990
  H      919.638     233.088    -620.494
  H      917.552     230.159    -624.091
  H      917.335     231.880    -624.474
  H      916.264     231.086    -623.281
  H      917.812     227.725    -619.103
  H      918.503     228.543    -617.722
  H      918.802     229.145    -619.335

 3  4  5  6  7  8  9  10  11  12  13  24  27  28  29  30  32 0
 6-311+G(2d,p)
 ****
 34  35 0
 6-311+G(2d,p)
 ****
 1  2  14  15  16  17  18  19  20  21  22  23  25  26 0
 3-21G
 ****
 31  33  36  37  38  39  40  41  42  43  44  45  46 0
 3-21G
 ****


