%nproc=1
%NoSave
%Mem=1900MB
#P OB98/GEN NMR

erre ene a

0 1
  C      -37.708      17.390     -29.799
  O      -36.465      17.793     -30.331
  P      -36.253      19.166     -31.121
  C      -35.857      17.724     -33.246
  O      -36.469      18.882     -32.688
  C      -35.784      17.765     -34.779
  O      -37.089      17.496     -35.329
  C      -35.397      19.170     -35.251
  O      -34.039      19.559     -35.289
  C      -36.159      19.373     -36.555
  O      -35.352      19.123     -37.706
  C      -37.295      18.353     -36.464
  N      -41.080      20.639     -38.941
  C      -40.020      19.915     -39.451
  N      -39.853      19.975     -40.790
  N      -39.194      19.223     -38.710
  C      -39.433      19.340     -37.382
  C      -40.458      20.014     -36.761
  C      -41.387      20.741     -37.594
  O      -42.290      21.463     -37.177
  N      -40.342      19.974     -35.397
  C      -39.225      19.309     -35.188
  N      -38.616      18.939     -36.363
  O      -35.095      20.012     -30.700
  O      -37.600      19.965     -30.733
  H      -35.907      19.257     -38.496
  H      -37.371      20.913     -30.674
  H      -41.638      21.219     -39.556
  H      -38.797      19.101     -34.214
  H      -37.302      17.703     -37.348
  H      -36.507      20.409     -36.641
  H      -40.379      20.611     -41.371
  H      -35.854      19.876     -34.546
  H      -38.995      19.600     -41.177
  H      -35.132      16.977     -35.163
  H      -36.431      16.856     -32.910
  H      -34.847      17.617     -32.843
  P      -33.481      21.040     -35.519
  C      -31.789      20.671     -37.401
  O      -33.061      21.188     -37.056
  O      -32.070      21.053     -34.762
  O      -34.359      22.131     -35.000
  H      -31.822      21.971     -34.544
  H      -31.484      21.086     -38.364
  H      -31.847      19.581     -37.486
  H      -31.041      20.935     -36.647
  H      -37.599      16.441     -29.318
  H      -38.425      17.309     -30.589
  H      -38.043      18.115     -29.087

 3  4  5  6  7  8  9  10  11  12  23  26  30  31 0
 6-311+G(2d,p)
 ****
 33  35  36  37  38 0
 6-311+G(2d,p)
 ****
 1  2  13  14  15  16  17  18  19  20  21  22  24  25 0
 3-21G
 ****
 27  28  29  32  34  39  40  41  42  43  44  45  46  47  48  49 0
 3-21G
 ****


