%nproc=1
%NoSave
%Mem=1900MB
#P OB98/GEN NMR

erre ene a

0 1
  C       70.125      10.347      35.009
  O       68.928      10.237      35.753
  P       68.744       9.037      36.795
  C       67.147      10.462      38.218
  O       67.329       9.233      37.522
  C       65.675      10.866      38.204
  O       64.844       9.754      38.596
  C       65.333      11.994      39.170
  O       65.755      13.243      38.658
  C       63.822      11.831      39.289
  O       63.157      12.453      38.178
  C       63.663      10.305      39.223
  N       60.383       9.700      43.081
  C       60.347      10.484      41.983
  N       61.282      10.619      41.017
  C       62.349       9.851      41.287
  C       62.545       9.027      42.385
  C       61.486       8.945      43.304
  N       61.485       8.104      44.394
  N       63.789       8.427      42.321
  C       64.332       8.887      41.213
  N       63.475       9.698      40.525
  O       69.898       8.803      37.712
  O       68.495       7.760      35.863
  H       63.245      13.418      38.290
  H       69.198       7.102      36.021
  H       59.444      11.075      41.857
  H       65.328       8.651      40.862
  H       62.810      10.011      38.601
  H       63.421      12.280      40.201
  H       65.792      11.801      40.146
  H       65.407      11.143      37.176
  H       67.747      11.230      37.721
  H       60.620       8.018      44.904
  H       62.146       7.331      44.406
  H       67.499      10.350      39.248
  P       66.166      14.418      39.664
  C       67.469      15.564      37.777
  O       66.474      15.712      38.770
  O       67.214      14.072      40.669
  O       64.783      14.802      40.377
  H       64.959      15.097      41.289
  H       68.458      15.609      38.239
  H       67.374      16.382      37.060
  H       67.354      14.613      37.248
  H       70.070      11.202      34.369
  H       70.259       9.466      34.417
  H       70.952      10.456      35.679

 3  4  5  6  7  8  9  10  11  12  22  25  29  30  31  32 0
 6-311+G(2d,p)
 ****
 33  36  37 0
 6-311+G(2d,p)
 ****
 1  2  13  14  15  16  17  18  19  20  21  23  24  26 0
 3-21G
 ****
 27  28  34  35  38  39  40  41  42  43  44  45  46  47  48 0
 3-21G
 ****


