%nproc=1
%NoSave
%Mem=1900MB
#P OB98/GEN NMR

erre ene a

0 1
  C      -90.391    -390.756     221.509
  O      -90.803    -390.952     222.849
  H      -90.939    -391.455     220.870
  H      -89.321    -390.944     221.398
  H      -90.627    -389.738     221.191
  P      -89.952    -390.240     224.011
  C      -87.752    -390.884     225.198
  O      -88.518    -390.975     224.003
  C      -86.739    -392.024     225.304
  O      -87.394    -393.258     225.664
  C      -86.023    -392.335     223.998
  O      -85.156    -391.322     223.543
  C      -85.463    -393.723     224.274
  O      -84.242    -393.682     225.005
  C      -86.583    -394.336     225.146
  N      -87.392    -395.310     224.415
  C      -86.704    -396.411     223.908
  O      -85.487    -396.572     224.033
  N      -87.459    -397.315     223.218
  C      -88.796    -397.208     222.953
  O      -89.416    -398.051     222.308
  C      -89.458    -396.003     223.482
  C      -88.736    -395.122     224.182
  O      -90.607    -390.204     225.362
  O      -89.618    -388.793     223.415
  H      -84.420    -393.184     225.826
  H      -89.314    -388.178     224.125
  H      -86.986    -398.132     222.854
  H      -90.514    -395.879     223.277
  H      -89.205    -394.228     224.580
  H      -86.154    -394.844     226.021
  H      -85.272    -394.279     223.352
  H      -86.779    -392.457     223.210
  H      -86.029    -391.775     226.097
  H      -88.450    -390.939     226.047
  H      -87.237    -389.915     225.230
  P      -84.436    -391.341     222.120
  C      -82.459    -392.701     221.078
  O      -83.509    -392.650     222.037
  O      -83.868    -390.045     221.638
  O      -85.663    -391.733     221.141
  H      -85.509    -391.268     220.289
  H      -81.946    -393.637     221.160
  H      -81.772    -391.901     221.258
  H      -82.869    -392.604     220.095

 6  7  8  9  10  11  12  13  14  15  16  26  31  32  33  34  35 0
 6-311+G(2d,p)
 ****
 36  37 0
 6-311+G(2d,p)
 ****
 1  2  3  4  5  17  18  19  20  21  22  23  24  25 0
 3-21G
 ****
 27  28  29  30  38  39  40  41  42  43  44  45 0
 3-21G
 ****


