%nproc=1
%NoSave
%Mem=1900MB
#P OB98/GEN NMR

erre ene a

0 1
  C     -329.482    -337.548     -12.655
  O     -330.457    -337.728     -13.660
  H     -328.516    -337.379     -13.133
  H     -329.413    -338.439     -12.029
  H     -329.728    -336.677     -12.038
  P     -331.965    -338.058     -13.225
  C     -333.371    -340.217     -13.037
  O     -332.064    -339.653     -13.065
  C     -333.287    -341.748     -13.032
  O     -332.725    -342.166     -14.299
  C     -332.384    -342.284     -11.908
  O     -333.030    -343.270     -11.101
  C     -331.108    -342.682     -12.643
  O     -330.359    -343.692     -12.005
  C     -331.615    -343.043     -14.045
  N     -330.598    -342.912     -15.087
  C     -329.476    -343.733     -14.997
  O     -329.282    -344.567     -14.117
  N     -328.542    -343.572     -15.993
  C     -328.613    -342.684     -17.025
  O     -327.746    -342.589     -17.888
  C     -329.808    -341.824     -17.049
  C     -330.727    -341.971     -16.097
  O     -333.031    -337.451     -14.076
  O     -332.056    -337.540     -11.711
  H     -329.610    -343.914     -12.598
  H     -332.565    -336.704     -11.683
  H     -327.736    -344.171     -15.948
  H     -329.887    -341.099     -17.851
  H     -331.621    -341.354     -16.083
  H     -331.976    -344.074     -14.066
  H     -330.462    -341.795     -12.713
  H     -332.149    -341.492     -11.189
  H     -334.301    -342.158     -12.968
  H     -333.905    -339.869     -13.929
  H     -333.901    -339.870     -12.142
  P     -333.829    -342.974      -9.751
  C     -333.293    -343.188      -7.183
  O     -332.814    -343.092      -8.521
  O     -335.144    -343.666      -9.608
  O     -334.121    -341.386      -9.827
  H     -334.974    -341.245      -9.366
  H     -332.463    -343.258      -6.511
  H     -333.906    -344.060      -7.085
  H     -333.870    -342.318      -6.947

 6  7  8  9  10  11  12  13  14  15  16  26  31  32  33  34  35 0
 6-311+G(2d,p)
 ****
 36  37 0
 6-311+G(2d,p)
 ****
 1  2  3  4  5  17  18  19  20  21  22  23  24  25 0
 3-21G
 ****
 27  28  29  30  38  39  40  41  42  43  44  45 0
 3-21G
 ****


