%nproc=1
%NoSave
%Mem=1900MB
#P OB98/GEN NMR

erre ene a

0 1
  C       17.429      40.933     -15.515
  O       18.084      39.705     -15.251
  P       18.817      38.975     -16.480
  C       16.880      37.319     -16.990
  O       17.653      38.426     -17.441
  C       16.535      36.375     -18.142
  O       15.636      37.056     -19.052
  C       17.748      35.895     -18.943
  O       17.515      34.536     -19.320
  C       17.717      36.765     -20.187
  O       18.385      36.143     -21.284
  C       16.204      36.960     -20.379
  N       15.898      38.145     -21.175
  C       16.005      38.016     -22.565
  O       16.419      36.966     -23.055
  N       15.689      39.096     -23.355
  C       15.401      40.233     -22.801
  N       15.094      41.270     -23.630
  C       15.399      40.443     -21.340
  C       15.631      39.364     -20.595
  O       19.402      37.645     -15.811
  O       19.879      39.788     -17.146
  H       17.943      35.285     -21.463
  H       20.236      37.374     -16.242
  H       15.186      41.422     -20.933
  H       15.626      39.420     -19.514
  H       15.758      36.085     -20.870
  H       18.206      37.725     -19.983
  H       18.684      35.967     -18.381
  H       15.988      35.516     -17.730
  H       15.117      41.105     -24.628
  H       15.944      37.690     -16.560
  H       14.856      42.195     -23.291
  H       17.427      36.788     -16.203
  P       18.792      33.586     -19.508
  C       18.553      33.354     -22.055
  O       19.322      33.886     -20.992
  O       18.098      32.151     -19.701
  O       19.812      33.548     -18.419
  H       18.782      31.460     -19.763
  H       18.941      33.746     -22.999
  H       17.505      33.648     -21.957
  H       18.638      32.264     -22.066
  H       16.988      41.303     -14.613
  H       16.665      40.779     -16.248
  H       18.139      41.644     -15.883

 3  4  5  6  7  8  9  10  11  12  13  21  23  27  28  29  30  32 0
 6-311+G(2d,p)
 ****
 34  35 0
 6-311+G(2d,p)
 ****
 1  2  14  15  16  17  18  19  20  22  24  25  26 0
 3-21G
 ****
 31  33  36  37  38  39  40  41  42  43  44  45  46 0
 3-21G
 ****


