%nproc=1
%NoSave
%Mem=1900MB
#P OB98/GEN NMR

erre ene a

0 1
  C      114.562    -340.250    -214.651
  O      113.962    -339.392    -215.600
  H      114.989    -341.109    -215.174
  H      113.819    -340.609    -213.932
  H      115.369    -339.730    -214.122
  P      113.202    -338.081    -215.082
  C      110.845    -337.526    -214.179
  O      111.703    -338.532    -214.716
  C      109.425    -338.082    -214.010
  O      108.913    -338.397    -215.333
  C      109.395    -339.365    -213.159
  O      108.466    -339.295    -212.074
  C      109.183    -340.466    -214.195
  O      108.556    -341.626    -213.699
  C      108.411    -339.747    -215.310
  N      108.559    -340.366    -216.626
  C      107.935    -341.601    -216.823
  O      107.243    -342.189    -215.991
  N      108.107    -342.157    -218.065
  C      108.841    -341.631    -219.087
  O      108.953    -342.178    -220.180
  C      109.498    -340.347    -218.809
  C      109.328    -339.779    -217.614
  O      113.296    -336.883    -215.972
  O      113.850    -337.799    -213.644
  H      109.021    -341.889    -212.879
  H      114.489    -337.065    -213.713
  H      107.650    -343.042    -218.223
  H      110.094    -339.903    -219.598
  H      109.802    -338.832    -217.374
  H      107.345    -339.710    -215.079
  H      110.165    -340.767    -214.574
  H      110.358    -339.527    -212.656
  H      108.787    -337.295    -213.589
  H      110.843    -336.680    -214.874
  H      111.235    -337.196    -213.208
  P      108.884    -339.215    -210.537
  C      109.716    -340.923    -208.714
  O      109.327    -340.683    -210.065
  O      107.933    -338.485    -209.644
  O      110.268    -338.386    -210.559
  H      110.300    -337.870    -209.728
  H      109.974    -341.955    -208.595
  H      108.904    -340.681    -208.061
  H      110.562    -340.313    -208.473

 6  7  8  9  10  11  12  13  14  15  16  26  31  32  33  34  35 0
 6-311+G(2d,p)
 ****
 36  37 0
 6-311+G(2d,p)
 ****
 1  2  3  4  5  17  18  19  20  21  22  23  24  25 0
 3-21G
 ****
 27  28  29  30  38  39  40  41  42  43  44  45 0
 3-21G
 ****


