%nproc=1
%NoSave
%Mem=1900MB
#P OB98/GEN NMR

erre ene a

0 1
  C      -11.339     582.706     529.614
  O      -11.148     581.507     528.897
  H      -10.605     583.440     529.262
  H      -11.175     582.543     530.681
  H      -12.343     583.102     529.443
  P      -12.065     580.234     529.240
  C      -14.449     579.657     528.475
  O      -13.191     580.200     528.091
  C      -15.183     579.058     527.277
  O      -15.370     580.079     526.263
  C      -14.434     577.885     526.615
  O      -15.342     576.805     526.384
  C      -13.979     578.461     525.285
  O      -13.758     577.458     524.292
  C      -15.107     579.453     524.992
  N      -14.742     580.416     523.961
  C      -14.909     579.988     522.637
  O      -15.347     578.868     522.395
  N      -14.522     580.829     521.625
  C      -13.975     581.965     521.904
  N      -13.581     582.736     520.850
  C      -13.748     582.441     523.286
  C      -14.156     581.625     524.257
  O      -12.586     580.196     530.636
  O      -11.156     578.963     528.876
  H      -13.208     576.749     524.680
  H      -11.489     578.180     529.373
  H      -13.275     583.398     523.466
  H      -14.032     581.883     525.303
  H      -16.016     578.923     524.672
  H      -13.034     579.005     525.428
  H      -13.589     577.526     527.210
  H      -16.186     578.756     527.600
  H      -13.746     582.365     519.918
  H      -15.047     580.454     528.937
  H      -13.122     583.629     520.944
  H      -14.273     578.869     529.218
  P      -15.245     575.572     527.414
  C      -16.391     574.879     529.640
  O      -16.218     575.887     528.657
  O      -13.775     575.714     528.024
  O      -15.452     574.237     526.766
  H      -13.208     574.983     527.706
  H      -17.060     575.231     530.398
  H      -15.445     574.644     530.081
  H      -16.799     574.002     529.183

 6  7  8  9  10  11  12  13  14  15  16  26  30  31  32  33  35 0
 6-311+G(2d,p)
 ****
 37  38 0
 6-311+G(2d,p)
 ****
 1  2  3  4  5  17  18  19  20  21  22  23  24  25 0
 3-21G
 ****
 27  28  29  34  36  39  40  41  42  43  44  45  46 0
 3-21G
 ****


