%nproc=1
%NoSave
%Mem=1900MB
#P OB98/GEN NMR

erre ene a

0 1
  C       86.363     -15.175    -235.902
  O       87.685     -15.294    -236.390
  H       86.268     -15.780    -234.998
  H       85.649     -15.538    -236.646
  H       86.148     -14.132    -235.652
  P       88.024     -14.503    -237.744
  C       87.575     -16.711    -239.018
  O       87.266     -15.330    -238.890
  C       86.581     -17.398    -239.951
  O       85.269     -17.408    -239.360
  C       86.430     -16.731    -241.312
  O       87.458     -17.159    -242.192
  C       85.072     -17.262    -241.747
  O       85.221     -18.591    -242.282
  C       84.288     -17.314    -240.425
  N       80.104     -14.741    -241.915
  C       80.794     -15.742    -242.501
  N       81.929     -16.342    -242.076
  C       82.339     -15.813    -240.910
  C       81.738     -14.786    -240.198
  C       80.561     -14.242    -240.743
  N       79.859     -13.220    -240.145
  N       82.445     -14.505    -239.048
  C       83.422     -15.387    -239.037
  N       83.424     -16.177    -240.161
  O       89.469     -14.220    -237.983
  O       87.095     -13.209    -237.581
  H       85.851     -18.526    -243.025
  H       86.229     -13.453    -237.213
  H       80.386     -16.109    -243.437
  H       84.140     -15.511    -238.234
  H       83.653     -18.207    -240.364
  H       84.614     -16.653    -242.528
  H       86.379     -15.640    -241.227
  H       86.893     -18.447    -240.064
  H       87.556     -17.196    -238.036
  H       79.147     -12.766    -240.694
  H       80.275     -12.767    -239.343
  H       88.590     -16.789    -239.421
  P       87.976     -16.216    -243.381
  C       86.314     -17.372    -244.966
  O       86.750     -16.139    -244.411
  O       89.287     -16.616    -243.962
  O       88.001     -14.750    -242.740
  H       88.546     -14.156    -243.292
  H       85.497     -17.194    -245.633
  H       85.996     -18.025    -244.180
  H       87.120     -17.826    -245.503

 6  7  8  9  10  11  12  13  14  15  25  28  32  33  34  35 0
 6-311+G(2d,p)
 ****
 36  39  40 0
 6-311+G(2d,p)
 ****
 1  2  3  4  5  16  17  18  19  20  21  22  23  24 0
 3-21G
 ****
 26  27  29  30  31  37  38  41  42  43  44  45  46  47 0
 3-21G
 ****
 48 0
 3-21G
 ****


