%nproc=1
%NoSave
%Mem=1900MB
#P OB98/GEN NMR

erre ene a

0 1
  C     -137.784      93.250       1.845
  O     -137.049      94.337       2.372
  H     -138.746      93.192       2.362
  H     -137.240      92.314       2.006
  H     -137.964      93.399       0.777
  P     -135.573      94.551       1.779
  C     -136.351      96.497       0.257
  O     -135.761      95.208       0.326
  C     -135.499      97.429      -0.599
  O     -134.167      97.548      -0.051
  C     -135.340      96.986      -2.049
  O     -136.448      97.398      -2.830
  C     -134.051      97.696      -2.437
  O     -134.299      99.083      -2.752
  C     -133.217      97.573      -1.153
  N     -128.445      95.997      -0.639
  C     -128.958      97.278      -0.734
  N     -128.063      98.292      -0.722
  N     -130.232      97.546      -0.851
  C     -131.005      96.436      -0.909
  C     -130.620      95.117      -0.825
  C     -129.209      94.841      -0.645
  O     -128.705      93.735      -0.468
  N     -131.701      94.278      -0.907
  C     -132.730      95.084      -1.072
  N     -132.359      96.404      -1.085
  O     -135.086      93.060       1.448
  O     -134.612      95.242       2.685
  H     -134.892      99.133      -3.521
  H     -134.135      92.987       1.658
  H     -127.459      95.856      -0.521
  H     -133.761      94.767      -1.177
  H     -132.569      98.442      -0.999
  H     -133.600      97.253      -3.326
  H     -127.087      98.146      -0.928
  H     -135.189      95.901      -2.115
  H     -128.434      99.223      -0.869
  H     -135.954      98.428      -0.552
  H     -136.434      96.906       1.269
  H     -137.353      96.413      -0.178
  P     -136.946      96.431      -4.007
  C     -137.700      94.306      -2.719
  O     -136.709      94.914      -3.538
  O     -135.836      96.651      -5.142
  O     -138.308      96.736      -4.529
  H     -136.201      97.199      -5.859
  H     -137.406      93.303      -2.489
  H     -138.635      94.293      -3.240
  H     -137.805      94.864      -1.812

 6  7  8  9  10  11  12  13  14  15  26  29  33  34 0
 6-311+G(2d,p)
 ****
 36  38  39  40  41 0
 6-311+G(2d,p)
 ****
 1  2  3  4  5  16  17  18  19  20  21  22  23  24  25 0
 3-21G
 ****
 27  28  30  31  32  35  37  42  43  44  45  46  47 0
 3-21G
 ****
 48  49 0
 3-21G
 ****


