%nproc=1
%NoSave
%Mem=1900MB
#P OB98/GEN NMR

erre ene a

0 1
  C      -97.519     305.306    -204.653
  O      -96.323     305.206    -205.408
  P      -95.364     303.947    -205.123
  C      -93.518     305.213    -206.510
  O      -93.869     304.480    -205.347
  C      -92.242     306.021    -206.264
  O      -92.504     307.085    -205.320
  C      -91.095     305.223    -205.656
  O      -90.446     304.416    -206.632
  C      -90.226     306.339    -205.082
  O      -89.436     306.941    -206.120
  C      -91.297     307.334    -204.581
  N      -91.526     307.259    -203.141
  C      -90.591     307.904    -202.335
  O      -89.622     308.512    -202.783
  N      -90.808     307.808    -200.985
  C      -91.798     307.094    -200.373
  O      -91.918     307.005    -199.155
  C      -92.733     306.408    -201.277
  C      -92.555     306.518    -202.595
  O      -95.674     303.048    -206.411
  O      -95.632     303.293    -203.810
  H      -95.955     303.586    -207.170
  H      -88.739     306.291    -206.349
  H      -90.156     308.287    -200.376
  H      -93.525     305.823    -200.831
  H      -93.228     306.012    -203.277
  H      -90.993     308.362    -204.828
  H      -89.541     305.982    -204.306
  H      -91.468     304.589    -204.844
  H      -91.933     306.476    -207.212
  H      -94.337     305.892    -206.763
  H      -93.374     304.518    -207.341
  P      -90.409     302.832    -206.339
  C      -88.336     302.312    -207.843
  O      -88.888     302.375    -206.542
  O      -91.181     302.253    -207.624
  O      -91.023     302.447    -205.028
  H      -90.913     302.697    -208.445
  H      -87.245     302.333    -207.762
  H      -88.662     303.152    -208.457
  H      -88.633     301.370    -208.320
  H      -98.053     306.185    -204.946
  H      -97.280     305.365    -203.612
  H      -98.127     304.443    -204.831

 3  4  5  6  7  8  9  10  11  12  13  24  28  29  30  31  32 0
 6-311+G(2d,p)
 ****
 33  34 0
 6-311+G(2d,p)
 ****
 1  2  14  15  16  17  18  19  20  21  22  23  25  26  27 0
 3-21G
 ****
 35  36  37  38  39  40  41  42  43  44  45 0
 3-21G
 ****


