%nproc=1
%NoSave
%Mem=1900MB
#P OB98/GEN NMR

erre ene a

0 1
  C     -232.594     128.271     730.316
  O     -232.895     129.455     731.026
  H     -232.014     128.533     729.417
  H     -233.511     127.763     729.994
  H     -231.993     127.595     730.931
  P     -233.949     129.360     732.231
  C     -231.945     129.184     733.856
  O     -233.162     129.872     733.535
  C     -231.101     129.988     734.856
  O     -230.470     131.108     734.185
  C     -231.932     130.620     735.986
  O     -232.441     129.668     736.901
  C     -231.000     131.720     736.480
  O     -230.046     131.280     737.450
  C     -230.272     132.130     735.182
  N     -230.698     133.452     734.701
  C     -230.400     134.528     735.519
  O     -229.813     134.422     736.594
  N     -230.816     135.754     735.070
  C     -231.549     135.989     733.944
  O     -231.928     137.103     733.616
  C     -231.861     134.789     733.126
  C     -231.439     133.601     733.535
  O     -234.621     128.031     732.410
  O     -234.964     130.558     731.933
  H     -229.491     132.053     737.672
  H     -235.802     130.449     732.442
  H     -230.593     136.556     735.648
  H     -232.441     134.944     732.220
  H     -231.662     132.713     732.957
  H     -229.180     132.177     735.353
  H     -231.564     132.536     736.944
  H     -232.795     131.113     735.535
  H     -230.314     129.338     735.251
  H     -231.378     129.055     732.926
  H     -232.177     128.199     734.266
  P     -233.763     129.941     737.764
  C     -235.523     129.279     735.946
  O     -234.924     128.962     737.211
  O     -234.106     131.361     738.054
  O     -233.374     129.240     739.166
  H     -233.788     129.753     739.885
  H     -236.269     128.549     735.712
  H     -234.771     129.278     735.185
  H     -235.976     130.247     735.998

 6  7  8  9  10  11  12  13  14  15  16  26  31  32  33  34  35 0
 6-311+G(2d,p)
 ****
 36  37 0
 6-311+G(2d,p)
 ****
 1  2  3  4  5  17  18  19  20  21  22  23  24  25 0
 3-21G
 ****
 27  28  29  30  38  39  40  41  42  43  44  45 0
 3-21G
 ****


