%nproc=1
%NoSave
%Mem=1900MB
#P OB98/GEN NMR

erre ene a

0 1
  C        0.177      -2.722     119.696
  O        0.828      -3.560     118.764
  H       -0.657      -3.274     120.137
  H       -0.219      -1.833     119.199
  H        0.863      -2.429     120.495
  P        2.095      -2.981     117.968
  C        3.540      -3.257     120.100
  O        3.033      -2.365     119.120
  C        4.937      -2.824     120.537
  O        5.845      -2.775     119.415
  C        5.013      -1.430     121.150
  O        4.484      -1.353     122.462
  C        6.515      -1.213     121.118
  O        7.136      -1.973     122.170
  C        6.867      -1.787     119.727
  N        6.920      -0.758     118.689
  C        8.067       0.042     118.658
  O        8.970      -0.121     119.477
  N        8.153       1.040     117.716
  C        7.169       1.236     116.894
  N        7.305       2.242     115.987
  C        5.934       0.429     116.905
  C        5.877      -0.540     117.815
  O        1.790      -2.062     116.830
  O        2.926      -4.279     117.538
  H        6.612      -1.821     122.977
  H        3.718      -3.976     117.031
  H        5.132       0.652     116.218
  H        4.998      -1.172     117.889
  H        7.829      -2.313     119.753
  H        6.803      -0.170     121.260
  H        4.542      -0.688     120.495
  H        5.318      -3.589     121.226
  H        8.162       2.778     116.004
  H        3.558      -4.263     119.671
  H        6.560       2.514     115.360
  H        2.889      -3.258     120.980
  P        3.888       0.068     122.923
  C        1.728      -0.144     121.472
  O        2.931       0.559     121.738
  O        5.154       1.038     122.833
  O        3.249       0.079     124.276
  H        5.557       1.164     123.714
  H        1.218       0.319     120.653
  H        1.103      -0.122     122.340
  H        1.956      -1.159     121.222

 6  7  8  9  10  11  12  13  14  15  16  26  30  31  32  33  35 0
 6-311+G(2d,p)
 ****
 37  38 0
 6-311+G(2d,p)
 ****
 1  2  3  4  5  17  18  19  20  21  22  23  24  25 0
 3-21G
 ****
 27  28  29  34  36  39  40  41  42  43  44  45  46 0
 3-21G
 ****


