%nproc=1
%NoSave
%Mem=1900MB
#P OB98/GEN NMR

erre ene a

0 1
  C     -266.694     -44.078    -116.340
  O     -267.044     -45.274    -117.020
  P     -266.411     -46.678    -116.579
  C     -264.504     -48.168    -117.445
  O     -265.061     -46.859    -117.427
  C     -263.009     -48.111    -117.752
  O     -262.830     -47.826    -119.161
  C     -262.268     -47.032    -116.972
  O     -260.963     -47.513    -116.641
  C     -262.117     -45.888    -117.960
  O     -260.983     -45.068    -117.638
  C     -262.013     -46.649    -119.287
  N     -261.025     -42.723    -122.444
  C     -260.311     -43.265    -121.432
  N     -260.645     -44.289    -120.617
  C     -261.833     -44.803    -120.972
  C     -262.673     -44.363    -121.983
  C     -262.228     -43.266    -122.743
  N     -262.951     -42.726    -123.784
  N     -263.825     -45.122    -122.028
  C     -263.674     -46.013    -121.076
  N     -262.483     -45.871    -120.415
  O     -267.344     -47.838    -116.644
  O     -265.875     -46.428    -115.094
  H     -260.195     -45.654    -117.632
  H     -266.028     -47.219    -114.541
  H     -259.343     -42.807    -121.247
  H     -264.396     -46.775    -120.813
  H     -260.984     -46.968    -119.488
  H     -263.012     -45.254    -117.928
  H     -262.797     -46.727    -116.061
  H     -262.573     -49.101    -117.558
  H     -265.008     -48.747    -118.224
  H     -262.499     -42.025    -124.345
  H     -263.760     -43.235    -124.114
  H     -264.684     -48.653    -116.480
  P     -260.304     -46.895    -115.304
  C     -259.414     -44.502    -114.792
  O     -260.269     -45.317    -115.563
  O     -259.010     -47.557    -114.961
  O     -261.477     -47.125    -114.242
  H     -262.356     -47.181    -114.682
  H     -259.559     -43.459    -115.084
  H     -258.369     -44.771    -114.975
  H     -259.643     -44.608    -113.726
  H     -267.216     -43.253    -116.778
  H     -265.639     -43.917    -116.422
  H     -266.962     -44.163    -115.308

 3  4  5  6  7  8  9  10  11  12  22  25  29  30  31  32 0
 6-311+G(2d,p)
 ****
 33  36  37 0
 6-311+G(2d,p)
 ****
 1  2  13  14  15  16  17  18  19  20  21  23  24  26 0
 3-21G
 ****
 27  28  34  35  38  39  40  41  42  43  44  45  46  47  48 0
 3-21G
 ****


