%nproc=1
%NoSave
%Mem=1900MB
#P OB98/GEN NMR

erre ene a

0 1
  C      237.517     689.669    -954.783
  O      238.793     689.664    -954.139
  P      238.818     689.135    -952.626
  C      241.009     687.740    -952.827
  O      240.343     688.840    -952.218
  C      242.515     687.996    -952.915
  O      242.833     689.045    -953.853
  C      243.145     688.411    -951.594
  O      243.360     687.266    -950.786
  C      244.454     689.070    -952.070
  O      245.481     688.084    -952.295
  C      244.011     689.726    -953.381
  N      244.323     694.132    -955.904
  C      244.811     692.889    -956.244
  N      245.404     692.808    -957.430
  N      244.658     691.821    -955.476
  C      244.017     692.078    -954.333
  C      243.480     693.263    -953.872
  C      243.634     694.434    -954.714
  O      243.223     695.560    -954.465
  N      242.848     693.108    -952.655
  C      243.120     691.859    -952.328
  N      243.766     691.159    -953.333
  O      238.178     687.653    -952.749
  O      238.041     689.968    -951.667
  H      245.171     687.472    -952.986
  H      237.295     687.635    -952.334
  H      244.460     694.929    -956.498
  H      242.823     691.400    -951.395
  H      244.780     689.602    -954.177
  H      244.836     689.755    -951.324
  H      245.553     693.568    -958.059
  H      242.509     689.144    -951.092
  H      245.775     691.877    -957.723
  H      242.984     687.067    -953.274
  H      240.605     687.543    -953.826
  H      240.798     686.843    -952.220
  P      242.773     687.276    -949.307
  C      242.324     684.754    -949.775
  O      242.618     685.754    -948.821
  O      241.237     687.752    -949.532
  O      243.455     688.196    -948.361
  H      240.995     688.424    -948.849
  H      242.781     683.810    -949.444
  H      242.763     685.007    -950.744
  H      241.247     684.632    -949.850
  H      237.623     690.039    -955.781
  H      236.845     690.299    -954.238
  H      237.128     688.673    -954.812

 3  4  5  6  7  8  9  10  11  12  23  26  30  31 0
 6-311+G(2d,p)
 ****
 33  35  36  37  38 0
 6-311+G(2d,p)
 ****
 1  2  13  14  15  16  17  18  19  20  21  22  24  25 0
 3-21G
 ****
 27  28  29  32  34  39  40  41  42  43  44  45  46  47  48  49 0
 3-21G
 ****


