%nproc=1
%NoSave
%Mem=1900MB
#P OB98/GEN NMR

erre ene a

0 1
  C      192.594    -617.719    -102.230
  O      193.635    -618.445    -102.869
  P      194.208    -618.081    -104.304
  C      193.317    -618.179    -106.753
  O      192.993    -618.124    -105.371
  C      192.704    -619.406    -107.458
  O      191.260    -619.283    -107.468
  C      193.142    -619.429    -108.928
  O      194.387    -619.998    -109.297
  C      191.931    -619.997    -109.696
  O      192.059    -621.386    -109.963
  C      190.765    -619.735    -108.734
  N      186.431    -619.033    -111.272
  C      186.942    -620.198    -110.726
  N      186.299    -621.339    -111.049
  N      187.980    -620.233    -109.941
  C      188.576    -619.029    -109.782
  C      188.156    -617.788    -110.262
  C      186.974    -617.780    -111.075
  O      186.543    -616.779    -111.669
  N      189.043    -616.800    -109.950
  C      190.020    -617.419    -109.327
  N      189.800    -618.772    -109.228
  O      195.515    -618.692    -104.689
  O      194.446    -616.481    -104.159
  H      192.764    -621.507    -110.635
  H      195.247    -616.248    -104.687
  H      185.667    -619.089    -111.930
  H      190.924    -616.938    -108.951
  H      190.217    -620.666    -108.547
  H      191.830    -619.498    -110.665
  H      185.587    -621.367    -111.773
  H      193.213    -618.380    -109.260
  H      186.734    -622.228    -110.810
  H      192.924    -620.323    -106.913
  H      194.418    -618.203    -106.829
  H      192.976    -617.271    -107.244
  P      195.458    -619.381    -110.305
  C      195.426    -618.169    -112.571
  O      194.704    -618.991    -111.660
  O      196.368    -620.625    -110.741
  O      196.319    -618.290    -109.726
  H      197.225    -620.317    -111.061
  H      194.740    -617.726    -113.280
  H      196.170    -618.784    -113.101
  H      195.952    -617.358    -112.023
  H      192.387    -618.157    -101.276
  H      191.713    -617.751    -102.836
  H      192.898    -616.702    -102.097

 3  4  5  6  7  8  9  10  11  12  23  26  30  31 0
 6-311+G(2d,p)
 ****
 33  35  36  37  38 0
 6-311+G(2d,p)
 ****
 1  2  13  14  15  16  17  18  19  20  21  22  24  25 0
 3-21G
 ****
 27  28  29  32  34  39  40  41  42  43  44  45  46  47  48  49 0
 3-21G
 ****


