%nproc=1
%NoSave
%Mem=1900MB
#P OB98/GEN NMR

erre ene a

0 1
  C      113.600      25.672     135.147
  O      114.067      25.328     136.456
  P      114.930      26.446     137.229
  C      115.677      26.755     139.703
  O      115.297      25.852     138.674
  C      116.078      25.997     140.968
  O      114.923      25.478     141.647
  C      116.967      24.787     140.715
  O      118.321      25.161     140.514
  C      116.805      24.025     142.023
  O      117.691      24.569     143.019
  C      115.341      24.308     142.393
  N      114.213      19.445     143.272
  C      115.222      20.229     143.798
  N      116.027      19.639     144.708
  N      115.423      21.477     143.463
  C      114.520      21.941     142.566
  C      113.479      21.265     141.971
  C      113.288      19.875     142.327
  O      112.433      19.127     141.867
  N      112.776      22.075     141.117
  C      113.371      23.247     141.215
  N      114.445      23.214     142.072
  O      113.843      27.574     137.558
  O      116.073      26.982     136.435
  H      117.524      24.079     143.848
  H      114.278      28.444     137.633
  H      114.109      18.487     143.559
  H      113.064      24.147     140.696
  H      115.228      24.544     143.456
  H      117.052      22.962     141.927
  H      115.888      18.706     145.066
  H      116.581      24.183     139.883
  H      116.751      20.209     145.131
  H      116.589      26.702     141.639
  H      114.847      27.427     139.931
  H      116.501      27.378     139.341
  P      118.805      25.381     138.999
  C      120.913      26.454     137.933
  O      120.297      25.955     139.104
  O      117.937      26.636     138.519
  O      118.615      24.196     138.114
  H      117.791      26.596     137.556
  H      120.219      27.064     137.352
  H      121.271      25.621     137.323
  H      121.766      27.072     138.223
  H      113.044      24.854     134.740
  H      114.436      25.884     134.514
  H      112.971      26.535     135.208

 3  4  5  6  7  8  9  10  11  12  23  26  30  31  33  0
 6-311+G(2d,p)
 ****
 35  36  37  38 0
 6-311+G(2d,p)
 ****
 1  2  13  14  15  16  17  18  19  20  21  22  24  25  27  28  29 0
 3-21G
 ****
 32  34  39  40  41  42  43  44  45  46  47  48  49 0
 3-21G
 ****


