%nproc=1
%NoSave
%Mem=1900MB
#P OB98/GEN NMR

erre ene a

0 1
  C      237.934     362.029    1332.703
  O      237.472     360.754    1332.332
  H      238.930     361.927    1333.141
  H      237.266     362.464    1333.453
  H      238.000     362.686    1331.832
  P      236.082     360.681    1331.520
  C      234.712     360.385    1333.710
  O      234.930     361.156    1332.531
  C      233.550     360.965    1334.512
  O      232.369     361.039    1333.667
  C      233.189     360.142    1335.755
  O      232.844     361.032    1336.818
  C      231.950     359.367    1335.325
  O      231.133     358.984    1336.425
  C      231.307     360.349    1334.335
  N      230.432     359.664    1333.393
  C      229.112     359.403    1333.824
  O      228.762     359.753    1334.960
  N      228.266     358.723    1332.991
  C      228.719     358.250    1331.868
  N      227.836     357.552    1331.099
  C      230.100     358.434    1331.406
  C      230.890     359.149    1332.202
  O      235.818     359.103    1331.378
  O      236.077     361.376    1330.198
  H      231.677     358.443    1337.034
  H      235.351     358.901    1330.551
  H      230.431     358.003    1330.468
  H      231.935     359.338    1331.963
  H      230.711     361.108    1334.885
  H      232.255     358.451    1334.802
  H      233.996     359.480    1336.094
  H      233.809     362.002    1334.801
  H      226.895     357.428    1331.465
  H      235.613     360.402    1334.315
  H      228.085     357.105    1330.234
  H      234.498     359.347    1333.416
  P      233.773     360.998    1338.127
  C      232.216     359.424    1339.487
  O      233.488     359.616    1338.902
  O      233.112     362.108    1339.080
  O      235.218     361.301    1337.846
  H      233.698     362.900    1339.125
  H      232.182     358.465    1339.961
  H      231.463     359.473    1338.728
  H      232.039     360.188    1340.215

 6  7  8  9  10  11  12  13  14  15  16  26  30  31  32  33  35 0
 6-311+G(2d,p)
 ****
 37  38 0
 6-311+G(2d,p)
 ****
 1  2  3  4  5  17  18  19  20  21  22  23  24  25 0
 3-21G
 ****
 27  28  29  34  36  39  40  41  42  43  44  45  46 0
 3-21G
 ****


