%nproc=1
%NoSave
%Mem=1900MB
#P OB98/GEN NMR

erre ene a

0 1
  C      199.787      90.506     400.689
  O      198.905      90.739     399.609
  H      199.227      90.061     401.515
  H      200.211      91.459     401.018
  H      200.593      89.821     400.394
  P      199.555      91.012     398.168
  C      199.181      88.448     397.949
  O      199.964      89.578     397.567
  C      198.823      87.613     396.720
  O      198.275      88.504     395.693
  C      200.011      86.855     396.098
  O      199.543      85.579     395.624
  C      200.366      87.716     394.901
  O      201.057      86.984     393.893
  C      198.985      88.198     394.479
  N      200.170      89.570     389.794
  C      199.992      88.315     390.345
  N      200.218      87.256     389.534
  N      199.630      88.114     391.579
  C      199.410      89.268     392.273
  C      199.560      90.570     391.842
  C      199.986      90.770     390.483
  O      200.183      91.860     389.939
  N      199.305      91.452     392.872
  C      199.029      90.683     393.905
  N      199.076      89.349     393.596
  O      200.964      91.678     398.544
  O      198.757      91.880     397.262
  H      201.136      87.552     393.097
  H      200.885      92.649     398.522
  H      200.483      89.666     388.838
  H      198.802      91.039     394.905
  H      198.419      87.432     393.932
  H      201.005      88.559     395.218
  H      200.487      87.320     388.570
  H      200.850      86.710     396.788
  H      200.051      86.327     389.924
  H      198.022      86.916     396.993
  H      198.263      88.803     398.430
  H      199.748      87.853     398.666
  P      200.318      84.269     396.116
  C      198.118      83.348     397.177
  O      199.494      83.637     397.351
  O      201.631      84.851     396.821
  O      200.648      83.309     395.023
  H      202.383      84.240     396.681
  H      197.722      82.937     398.083
  H      198.000      82.640     396.383
  H      197.593      84.248     396.934

 6  7  8  9  10  11  12  13  14  15  26  29  33  34 0
 6-311+G(2d,p)
 ****
 36  38  39  40  41 0
 6-311+G(2d,p)
 ****
 1  2  3  4  5  16  17  18  19  20  21  22  23  24  25 0
 3-21G
 ****
 27  28  30  31  32  35  37  42  43  44  45  46  47 0
 3-21G
 ****
 48  49 0
 3-21G
 ****


