%nproc=1
%NoSave
%Mem=1900MB
#P OB98/GEN NMR

erre ene a

0 1
  C       42.027     -38.457      99.231
  O       40.984     -38.921     100.065
  H       41.860     -37.410      98.964
  H       42.974     -38.534      99.772
  H       42.086     -39.067      98.325
  P       39.497     -38.855      99.466
  C       39.302     -36.634     100.806
  O       39.064     -37.313      99.581
  C       38.117     -35.726     101.116
  O       38.284     -35.118     102.418
  C       37.956     -34.568     100.137
  O       37.282     -34.949      98.950
  C       37.116     -33.612     100.965
  O       35.749     -34.059     100.988
  C       37.751     -33.768     102.356
  N       38.873     -28.985     103.801
  C       37.698     -29.645     103.700
  N       37.486     -30.924     103.328
  C       38.647     -31.538     103.053
  C       39.921     -30.998     103.118
  C       40.014     -29.651     103.508
  N       41.206     -28.966     103.583
  N       40.865     -31.933     102.740
  C       40.172     -33.020     102.472
  N       38.825     -32.822     102.614
  O       38.602     -39.564     100.588
  O       39.312     -39.449      98.110
  H       35.767     -35.022     101.149
  H       37.719     -39.780     100.233
  H       36.811     -29.068     103.947
  H       40.595     -33.968     102.161
  H       37.021     -33.660     103.167
  H       37.115     -32.595     100.565
  H       38.918     -34.095      99.912
  H       37.210     -36.342     101.151
  H       40.212     -36.032     100.711
  H       41.156     -27.969     103.727
  H       42.042     -29.406     103.227
  H       39.437     -37.365     101.609
  P       37.393     -33.964      97.686
  C       34.821     -33.603      97.693
  O       36.109     -33.003      97.746
  O       37.074     -34.929      96.452
  O       38.714     -33.280      97.545
  H       37.565     -34.650      95.655
  H       34.071     -32.842      97.743
  H       34.705     -34.272      98.520
  H       34.718     -34.146      96.777

 6  7  8  9  10  11  12  13  14  15  25  28  32  33  34  35 0
 6-311+G(2d,p)
 ****
 36  39  40 0
 6-311+G(2d,p)
 ****
 1  2  3  4  5  16  17  18  19  20  21  22  23  24 0
 3-21G
 ****
 26  27  29  30  31  37  38  41  42  43  44  45  46  47 0
 3-21G
 ****
 48 0
 3-21G
 ****


