%nproc=1
%NoSave
%Mem=1900MB
#P OB98/GEN NMR

erre ene a

0 1
  C       -6.342     -79.752     141.352
  O       -5.976     -80.529     140.205
  P       -5.475     -79.873     138.833
  C       -3.088     -80.844     138.689
  O       -4.402     -80.846     138.142
  C       -2.377     -82.182     138.457
  O       -2.791     -83.156     139.434
  C       -2.650     -82.825     137.102
  O       -1.926     -82.175     136.074
  C       -2.230     -84.266     137.371
  O       -0.807     -84.421     137.248
  C       -2.677     -84.461     138.838
  N       -3.923     -85.210     138.946
  C       -3.814     -86.544     139.352
  O       -2.708     -87.053     139.549
  N       -4.969     -87.279     139.510
  C       -6.116     -86.755     139.211
  N       -7.220     -87.521     139.392
  C       -6.262     -85.380     138.688
  C       -5.135     -84.673     138.589
  O       -5.012     -78.456     138.965
  O       -6.740     -79.957     137.847
  H       -0.620     -85.370     137.407
  H       -6.708     -79.204     137.228
  H       -7.233     -84.986     138.425
  H       -5.155     -83.651     138.220
  H       -1.903     -84.990     139.405
  H       -2.692     -84.976     136.679
  H       -3.728     -82.795     136.888
  H       -1.298     -82.014     138.590
  H       -7.084     -88.458     139.756
  H       -3.171     -80.658     139.769
  H       -8.156     -87.212     139.190
  H       -2.515     -80.028     138.234
  P       -2.217     -82.545     134.544
  C       -2.785     -80.125     133.912
  O       -1.942     -81.234     133.667
  O       -3.519     -83.227     134.275
  O       -0.985     -83.495     134.146
  H       -1.288     -84.141     133.478
  H       -2.274     -79.215     133.581
  H       -3.022     -80.035     134.972
  H       -3.708     -80.242     133.339
  H       -6.642     -80.405     142.144
  H       -7.154     -79.102     141.099
  H       -5.503     -79.168     141.670

 3  4  5  6  7  8  9  10  11  12  13  23  27  28  29  30  32 0
 6-311+G(2d,p)
 ****
 34  35 0
 6-311+G(2d,p)
 ****
 1  2  14  15  16  17  18  19  20  21  22  24  25  26 0
 3-21G
 ****
 31  33  36  37  38  39  40  41  42  43  44  45  46 0
 3-21G
 ****


