%nproc=1
%NoSave
%Mem=1900MB
#P OB98/GEN NMR

erre ene a

0 1
  C      765.811    -601.183      27.321
  O      767.016    -601.321      26.555
  P      767.538    -602.819      26.296
  C      769.571    -602.390      27.878
  O      768.466    -603.224      27.551
  C      770.468    -603.058      28.915
  O      769.835    -603.096      30.208
  C      770.815    -604.505      28.602
  O      771.858    -604.610      27.642
  C      771.281    -605.000      29.970
  O      772.664    -604.628      30.172
  C      770.373    -604.215      30.934
  N      768.696    -607.081      34.776
  C      769.903    -606.436      34.616
  N      770.786    -606.540      35.637
  N      770.226    -605.743      33.548
  C      769.227    -605.692      32.630
  C      768.003    -606.297      32.667
  C      767.673    -607.085      33.835
  O      766.626    -607.717      34.010
  N      767.263    -606.014      31.538
  C      768.042    -605.224      30.828
  N      769.264    -605.010      31.444
  O      768.585    -602.650      25.101
  O      766.454    -603.788      25.961
  H      772.866    -604.773      31.120
  H      768.653    -603.467      24.588
  H      768.501    -607.608      35.611
  H      767.774    -604.777      29.880
  H      770.926    -603.813      31.792
  H      771.228    -606.088      30.066
  H      770.583    -606.992      36.517
  H      769.914    -605.073      28.299
  H      771.672    -606.044      35.549
  H      771.387    -602.473      28.993
  H      769.204    -601.436      28.275
  H      770.129    -602.167      26.961
  P      771.502    -605.342      26.258
  C      772.909    -607.506      26.429
  O      771.622    -606.908      26.528
  O      772.764    -604.992      25.344
  O      770.216    -604.888      25.627
  H      772.513    -604.962      24.404
  H      773.675    -606.885      26.907
  H      773.163    -607.662      25.389
  H      772.876    -608.470      26.938
  H      765.570    -600.145      27.423
  H      765.953    -601.613      28.290
  H      765.011    -601.687      26.821

 3  4  5  6  7  8  9  10  11  12  23  26  30  31  33  0
 6-311+G(2d,p)
 ****
 35  36  37  38 0
 6-311+G(2d,p)
 ****
 1  2  13  14  15  16  17  18  19  20  21  22  24  25  27  28  29 0
 3-21G
 ****
 32  34  39  40  41  42  43  44  45  46  47  48  49 0
 3-21G
 ****


