%nproc=1
%NoSave
%Mem=1900MB
#P OB98/GEN NMR

erre ene a

0 1
  C     -170.376    -833.624    -296.102
  O     -170.882    -832.624    -295.241
  H     -170.338    -833.226    -297.119
  H     -171.038    -834.496    -296.094
  H     -169.372    -833.916    -295.793
  P     -171.083    -833.026    -293.700
  C     -173.266    -833.739    -292.480
  O     -172.430    -833.889    -293.621
  C     -174.619    -834.401    -292.741
  O     -175.291    -833.723    -293.828
  C     -174.526    -835.859    -293.159
  O     -174.297    -836.724    -292.058
  C     -175.891    -836.064    -293.801
  O     -176.893    -836.362    -292.811
  C     -176.159    -834.692    -294.461
  N     -175.969    -834.733    -295.915
  C     -177.139    -834.709    -296.674
  O     -178.268    -834.655    -296.181
  N     -176.968    -834.786    -298.024
  C     -175.768    -834.926    -298.682
  O     -175.693    -835.062    -299.896
  C     -174.578    -834.932    -297.825
  C     -174.721    -834.849    -296.497
  O     -171.481    -831.634    -293.007
  O     -169.895    -833.660    -293.052
  H     -170.714    -831.270    -292.530
  H     -176.766    -837.301    -292.572
  H     -177.804    -834.778    -298.597
  H     -173.611    -835.034    -298.312
  H     -173.855    -834.872    -295.846
  H     -177.189    -834.366    -294.268
  H     -175.894    -836.895    -294.506
  H     -173.759    -835.983    -293.934
  H     -175.237    -834.293    -291.835
  H     -173.422    -832.676    -292.281
  H     -172.770    -834.195    -291.616
  P     -173.859    -838.243    -292.354
  C     -175.319    -840.423    -292.268
  O     -175.211    -839.061    -292.639
  O     -173.409    -838.722    -290.894
  O     -172.808    -838.369    -293.413
  H     -173.945    -838.332    -290.184
  H     -176.287    -840.791    -292.538
  H     -175.184    -840.516    -291.211
  H     -174.567    -840.991    -292.775

 6  7  8  9  10  11  12  13  14  15  16  27  31  32  33  34  35 0
 6-311+G(2d,p)
 ****
 36  37 0
 6-311+G(2d,p)
 ****
 1  2  3  4  5  17  18  19  20  21  22  23  24  25 0
 3-21G
 ****
 26  28  29  30  38  39  40  41  42  43  44  45 0
 3-21G
 ****


