%nproc=1
%NoSave
%Mem=1900MB
#P OB98/GEN NMR

erre ene a

0 1
  C     -180.235    -673.048    -120.771
  O     -178.848    -672.965    -121.032
  H     -180.402    -673.380    -119.743
  H     -180.679    -672.053    -120.893
  H     -180.727    -673.735    -121.467
  P     -178.054    -674.343    -121.208
  C     -177.742    -674.571    -118.642
  O     -178.246    -675.158    -119.833
  C     -177.829    -675.570    -117.478
  O     -176.935    -676.685    -117.764
  C     -177.422    -674.982    -116.113
  O     -178.290    -675.530    -115.115
  C     -176.020    -675.530    -115.906
  O     -175.661    -675.615    -114.531
  C     -176.123    -676.889    -116.599
  N     -172.130    -679.515    -114.855
  C     -173.402    -679.400    -114.406
  N     -174.422    -678.717    -114.966
  C     -174.046    -678.170    -116.139
  C     -172.788    -678.206    -116.726
  C     -171.795    -678.911    -116.018
  N     -170.483    -678.976    -116.435
  N     -172.785    -677.477    -117.899
  C     -174.008    -676.986    -118.002
  N     -174.803    -677.379    -116.958
  O     -176.521    -673.870    -121.154
  O     -178.352    -675.107    -122.452
  H     -176.302    -676.193    -114.066
  H     -176.223    -673.619    -122.050
  H     -173.622    -679.913    -113.473
  H     -174.354    -676.331    -118.784
  H     -176.593    -677.649    -115.969
  H     -175.294    -674.881    -116.415
  H     -177.452    -673.889    -116.075
  H     -178.842    -675.970    -117.439
  H     -178.344    -673.689    -118.394
  H     -169.817    -679.407    -115.808
  H     -170.193    -678.442    -117.238
  H     -176.706    -674.264    -118.797
  P     -179.338    -674.537    -114.426
  C     -178.167    -674.157    -112.123
  O     -178.554    -673.597    -113.383
  O     -180.200    -675.506    -113.475
  O     -180.212    -673.798    -115.396
  H     -181.127    -675.189    -113.413
  H     -177.659    -673.415    -111.544
  H     -177.515    -674.989    -112.288
  H     -179.038    -674.486    -111.596

 6  7  8  9  10  11  12  13  14  15  25  28  32  33  34  35 0
 6-311+G(2d,p)
 ****
 36  39  40 0
 6-311+G(2d,p)
 ****
 1  2  3  4  5  16  17  18  19  20  21  22  23  24 0
 3-21G
 ****
 26  27  29  30  31  37  38  41  42  43  44  45  46  47 0
 3-21G
 ****
 48 0
 3-21G
 ****


