%nproc=1
%NoSave
%Mem=1900MB
#P OB98/GEN NMR

erre ene a

0 1
  C     -604.956     -51.768    -177.911
  O     -605.563     -50.680    -177.239
  H     -605.056     -51.647    -178.995
  H     -603.893     -51.792    -177.652
  H     -605.415     -52.711    -177.591
  P     -607.141     -50.489    -177.464
  C     -607.675     -49.271    -175.233
  O     -607.556     -49.175    -176.643
  C     -607.763     -47.884    -174.612
  O     -606.541     -47.153    -174.840
  C     -608.876     -46.995    -175.183
  O     -610.138     -47.312    -174.624
  C     -608.394     -45.619    -174.742
  O     -608.724     -45.409    -173.356
  C     -606.869     -45.739    -174.907
  N     -602.746     -45.112    -177.884
  C     -602.928     -45.746    -176.703
  N     -604.055     -45.889    -175.986
  C     -605.092     -45.310    -176.608
  C     -605.080     -44.642    -177.830
  C     -603.837     -44.557    -178.478
  N     -603.655     -43.830    -179.660
  N     -606.337     -44.162    -178.136
  C     -607.086     -44.512    -177.113
  N     -606.387     -45.209    -176.173
  O     -607.770     -51.693    -176.599
  O     -607.592     -50.537    -178.886
  H     -608.323     -44.558    -173.102
  H     -607.966     -52.442    -177.190
  H     -602.030     -46.203    -176.279
  H     -608.144     -44.280    -177.021
  H     -606.320     -45.242    -174.102
  H     -608.852     -44.803    -175.314
  H     -608.884     -47.034    -176.289
  H     -607.882     -47.998    -173.520
  H     -606.800     -49.794    -174.822
  H     -602.725     -43.457    -179.755
  H     -604.437     -43.225    -179.904
  H     -608.573     -49.850    -174.999
  P     -611.395     -47.390    -175.618
  C     -612.710     -49.101    -174.170
  O     -612.669     -47.778    -174.723
  O     -611.103     -48.737    -176.454
  O     -611.576     -46.224    -176.531
  H     -611.101     -48.532    -177.419
  H     -613.608     -49.222    -173.600
  H     -611.862     -49.248    -173.535
  H     -612.691     -49.820    -174.963

 6  7  8  9  10  11  12  13  14  15  25  28  32  33  34  35 0
 6-311+G(2d,p)
 ****
 36  39  40 0
 6-311+G(2d,p)
 ****
 1  2  3  4  5  16  17  18  19  20  21  22  23  24 0
 3-21G
 ****
 26  27  29  30  31  37  38  41  42  43  44  45  46  47  48 0
 3-21G
 ****


