%nproc=1
%NoSave
%Mem=1900MB
#P OB98/GEN NMR

erre ene a

0 1
  C      677.294     347.703    -212.962
  O      676.273     348.663    -213.141
  H      676.879     346.846    -212.429
  H      678.112     348.123    -212.368
  H      677.667     347.365    -213.933
  P      676.694     350.026    -213.878
  C      676.856     351.166    -211.556
  O      677.523     350.841    -212.774
  C      677.827     351.801    -210.563
  O      678.919     350.903    -210.291
  C      678.468     353.097    -211.051
  O      677.602     354.200    -210.815
  C      679.704     353.166    -210.169
  O      679.346     353.690    -208.873
  C      680.114     351.686    -210.045
  N      684.820     349.680    -210.426
  C      684.135     350.159    -209.366
  N      682.906     350.726    -209.346
  C      682.384     350.766    -210.586
  C      682.971     350.320    -211.759
  C      684.244     349.746    -211.651
  N      684.943     349.256    -212.735
  N      682.133     350.532    -212.834
  C      681.039     351.050    -212.306
  N      681.153     351.244    -210.953
  O      675.584     350.767    -214.549
  O      677.847     349.501    -214.859
  H      680.182     353.811    -208.383
  H      678.410     348.849    -214.406
  H      684.638     350.077    -208.407
  H      680.136     351.270    -212.856
  H      680.460     351.447    -209.029
  H      680.476     353.821    -210.578
  H      678.779     353.030    -212.103
  H      677.291     351.962    -209.619
  H      676.415     350.265    -211.113
  H      685.923     349.046    -212.598
  H      684.564     349.433    -213.652
  H      676.049     351.867    -211.799
  P      677.353     355.319    -211.936
  C      679.281     356.579    -210.790
  O      678.734     356.131    -212.021
  O      676.133     356.141    -211.729
  O      677.323     354.500    -213.311
  H      676.925     355.045    -214.011
  H      680.195     357.103    -210.976
  H      679.475     355.737    -210.158
  H      678.586     357.234    -210.308

 6  7  8  9  10  11  12  13  14  15  25  28  32  33  34  35 0
 6-311+G(2d,p)
 ****
 36  39  40 0
 6-311+G(2d,p)
 ****
 1  2  3  4  5  16  17  18  19  20  21  22  23  24 0
 3-21G
 ****
 26  27  29  30  31  37  38  41  42  43  44  45  46  47 0
 3-21G
 ****
 48 0
 3-21G
 ****


