%nproc=1
%NoSave
%Mem=1900MB
#P OB98/GEN NMR

erre ene a

0 1
  C       70.710     -59.236      38.409
  O       71.246     -59.321      37.105
  P       72.149     -58.147      36.489
  C       70.336     -57.653      34.733
  O       71.121     -57.128      35.792
  C       69.218     -56.688      34.337
  O       68.422     -56.359      35.509
  C       69.701     -55.368      33.720
  O       68.715     -54.993      32.753
  C       69.670     -54.422      34.905
  O       69.653     -53.056      34.517
  C       68.417     -54.920      35.638
  N       68.392     -54.491      37.032
  C       67.622     -53.363      37.328
  O       67.068     -52.734      36.425
  N       67.542     -52.940      38.631
  C       68.253     -53.531      39.539
  N       68.130     -53.071      40.813
  C       69.176     -54.643      39.248
  C       69.185     -55.079      37.989
  O       73.272     -58.600      35.619
  O       72.629     -57.326      37.776
  H       69.200     -52.541      35.220
  H       73.362     -57.807      38.237
  H       69.790     -55.067      40.027
  H       69.826     -55.890      37.679
  H       67.508     -54.550      35.145
  H       70.560     -54.582      35.527
  H       70.689     -55.435      33.261
  H       68.557     -57.209      33.634
  H       67.475     -52.315      40.973
  H       69.887     -58.589      35.077
  H       68.573     -53.511      41.606
  H       70.974     -57.884      33.873
  P       69.096     -54.803      31.207
  C       69.848     -52.417      31.748
  O       70.198     -53.644      31.136
  O       67.932     -54.621      30.287
  O       69.929     -56.122      30.839
  H       69.982     -56.213      29.868
  H       70.752     -51.817      31.885
  H       69.380     -52.584      32.722
  H       69.153     -51.871      31.102
  H       70.143     -60.119      38.620
  H       70.073     -58.379      38.478
  H       71.507     -59.146      39.117

 3  4  5  6  7  8  9  10  11  12  13  23  27  28  29  30  32 0
 6-311+G(2d,p)
 ****
 34  35 0
 6-311+G(2d,p)
 ****
 1  2  14  15  16  17  18  19  20  21  22  24  25  26 0
 3-21G
 ****
 31  33  36  37  38  39  40  41  42  43  44  45  46 0
 3-21G
 ****


