%nproc=1
%NoSave
%Mem=1900MB
#P OB98/GEN NMR

erre ene a

0 1
  C      378.439     267.362    -368.259
  O      378.920     268.427    -367.469
  H      378.721     267.509    -369.305
  H      378.885     266.428    -367.905
  H      377.352     267.286    -368.175
  P      378.413     269.900    -367.852
  C      376.155     269.701    -366.593
  O      377.406     270.368    -366.689
  C      375.348     270.273    -365.430
  O      373.984     269.797    -365.543
  C      375.873     269.892    -364.034
  O      376.173     271.069    -363.279
  C      374.703     269.180    -363.372
  O      374.544     269.522    -361.996
  C      373.504     269.618    -364.204
  N      368.651     268.826    -362.867
  C      369.322     269.964    -363.154
  N      370.588     270.098    -363.606
  C      371.158     268.893    -363.789
  C      370.588     267.650    -363.567
  C      369.275     267.643    -363.065
  N      368.609     266.488    -362.721
  N      371.488     266.642    -363.861
  C      372.592     267.266    -364.214
  N      372.448     268.628    -364.166
  O      377.445     269.640    -369.103
  O      379.492     270.875    -368.184
  H      375.389     269.306    -361.554
  H      377.662     270.265    -369.821
  H      368.779     270.886    -362.986
  H      373.532     266.791    -364.463
  H      373.090     270.575    -363.860
  H      374.860     268.097    -363.442
  H      376.753     269.243    -364.079
  H      375.320     271.365    -365.540
  H      376.323     268.633    -366.415
  H      367.717     266.581    -362.261
  H      369.109     265.611    -362.764
  H      375.615     269.816    -367.537
  P      377.429     270.985    -362.277
  C      379.606     271.331    -363.661
  O      378.582     271.927    -362.872
  O      377.991     269.505    -362.532
  O      377.079     271.207    -360.844
  H      378.453     269.179    -361.738
  H      380.294     272.085    -363.981
  H      379.169     270.861    -364.517
  H      380.125     270.599    -363.078

 6  7  8  9  10  11  12  13  14  15  25  28  32  33  34  35 0
 6-311+G(2d,p)
 ****
 36  39  40 0
 6-311+G(2d,p)
 ****
 1  2  3  4  5  16  17  18  19  20  21  22  23  24 0
 3-21G
 ****
 26  27  29  30  31  37  38  41  42  43  44  45  46  47  48 0
 3-21G
 ****


