%nproc=1
%NoSave
%Mem=1900MB
#P OB98/GEN NMR

erre ene a

0 1
  C      203.189     362.515     250.425
  O      204.301     362.691     249.535
  P      205.797     362.911     250.058
  C      205.720     365.470     250.383
  O      205.823     364.203     251.023
  C      206.156     366.612     251.303
  O      205.355     366.642     252.506
  C      207.611     366.516     251.779
  O      208.494     366.950     250.769
  C      207.576     367.394     253.023
  O      207.670     368.782     252.669
  C      206.178     367.081     253.596
  N      206.283     366.319     258.655
  C      206.215     367.450     257.911
  N      206.209     367.575     256.563
  C      206.227     366.356     255.984
  C      206.286     365.125     256.603
  C      206.314     365.132     258.016
  N      206.389     363.982     258.775
  N      206.317     364.102     255.690
  C      206.263     364.720     254.517
  N      206.204     366.077     254.646
  O      206.828     362.944     248.985
  O      206.057     361.694     251.066
  H      207.006     368.952     251.971
  H      207.010     361.489     251.087
  H      206.188     368.384     258.470
  H      206.259     364.211     253.553
  H      205.700     367.976     254.010
  H      208.397     367.176     253.720
  H      207.841     365.483     252.065
  H      206.003     367.555     250.775
  H      204.675     365.626     250.082
  H      206.436     364.070     259.775
  H      206.469     363.087     258.303
  H      206.342     365.459     249.482
  P      209.431     365.898     250.007
  C      211.366     366.532     251.565
  O      210.596     365.474     251.035
  O      209.903     366.305     248.651
  O      208.533     364.571     249.939
  H      208.776     364.054     249.141
  H      212.122     366.841     250.836
  H      211.871     366.180     252.467
  H      210.746     367.386     251.830
  H      202.293     362.386     249.855
  H      203.093     363.378     251.050
  H      203.353     361.650     251.033

 3  4  5  6  7  8  9  10  11  12  22  25  29  30  31  32 0
 6-311+G(2d,p)
 ****
 33  36  37 0
 6-311+G(2d,p)
 ****
 1  2  13  14  15  16  17  18  19  20  21  23  24  26 0
 3-21G
 ****
 27  28  34  35  38  39  40  41  42  43  44  45  46  47  48 0
 3-21G
 ****


