%nproc=1
%NoSave
%Mem=1900MB
#P OB98/GEN NMR

erre ene a

0 1
  C       17.755     247.550     -45.241
  O       16.902     247.418     -46.355
  H       17.383     246.907     -44.438
  H       17.749     248.587     -44.893
  H       18.778     247.251     -45.483
  P       17.432     247.883     -47.791
  C       15.516     249.555     -48.228
  O       16.914     249.384     -48.042
  C       15.140     251.025     -48.416
  O       13.782     251.137     -48.896
  C       15.190     251.809     -47.105
  O       16.468     252.294     -46.737
  C       14.231     252.961     -47.393
  O       14.907     254.035     -48.065
  C       13.194     252.314     -48.316
  N        8.376     250.648     -48.657
  C        9.275     250.923     -49.668
  N        8.809     250.792     -50.931
  N       10.505     251.308     -49.456
  C       10.800     251.487     -48.146
  C        9.989     251.262     -47.056
  C        8.644     250.782     -47.302
  O        7.806     250.531     -46.440
  N       10.636     251.551     -45.879
  C       11.807     252.022     -46.261
  N       11.962     251.978     -47.627
  O       16.537     247.034     -48.817
  O       18.893     247.660     -48.038
  H       14.261     254.743     -48.239
  H       17.019     246.912     -49.655
  H        7.450     250.328     -48.879
  H       12.582     252.382     -45.593
  H       12.927     252.980     -49.147
  H       13.812     253.378     -46.473
  H        7.840     250.612     -51.143
  H       14.774     251.211     -46.287
  H        9.342     251.233     -51.684
  H       15.790     251.470     -49.179
  H       15.028     249.156     -47.336
  H       15.171     248.959     -49.079
  P       16.897     252.334     -45.195
  C       15.894     254.708     -44.827
  O       15.898     253.347     -44.457
  O       18.286     253.131     -45.234
  O       17.040     251.000     -44.547
  H       19.034     252.503     -45.239
  H       15.173     255.236     -44.238
  H       15.641     254.795     -45.863
  H       16.865     255.126     -44.660

 6  7  8  9  10  11  12  13  14  15  26  29  33  34 0
 6-311+G(2d,p)
 ****
 36  38  39  40  41 0
 6-311+G(2d,p)
 ****
 1  2  3  4  5  16  17  18  19  20  21  22  23  24  25 0
 3-21G
 ****
 27  28  30  31  32  35  37  42  43  44  45  46  47 0
 3-21G
 ****
 48  49 0
 3-21G
 ****


