%nproc=1
%NoSave
%Mem=1900MB
#P OB98/GEN NMR

erre ene a

0 1
  C     -235.846    -274.203     558.667
  O     -237.219    -273.867     558.613
  H     -235.266    -273.281     558.774
  H     -235.539    -274.705     557.750
  H     -235.644    -274.840     559.534
  P     -238.292    -275.038     558.394
  C     -240.224    -273.626     559.367
  O     -239.726    -274.332     558.234
  C     -241.736    -273.420     559.238
  O     -241.964    -272.420     558.210
  C     -242.473    -274.712     558.834
  O     -243.556    -275.031     559.698
  C     -242.788    -274.475     557.352
  O     -243.912    -275.185     556.873
  C     -242.904    -272.945     557.259
  N     -242.639    -272.414     555.922
  C     -243.718    -272.291     555.053
  O     -244.880    -272.586     555.326
  N     -243.428    -271.796     553.810
  C     -242.190    -271.436     553.358
  O     -241.985    -270.993     552.233
  C     -241.078    -271.614     554.320
  C     -241.351    -272.086     555.531
  O     -238.250    -276.144     559.395
  O     -237.991    -275.572     556.913
  H     -244.552    -275.245     557.616
  H     -237.528    -276.433     556.964
  H     -244.199    -271.687     553.178
  H     -240.082    -271.349     553.982
  H     -240.559    -272.236     556.256
  H     -243.907    -272.618     557.553
  H     -241.924    -274.798     556.760
  H     -241.814    -275.582     558.918
  H     -242.120    -273.019     560.183
  H     -239.710    -272.665     559.415
  H     -240.006    -274.193     560.281
  P     -243.627    -276.319     560.633
  C     -245.381    -275.313     562.316
  O     -245.041    -276.341     561.382
  O     -242.421    -276.603     561.463
  O     -243.777    -277.544     559.581
  H     -243.330    -278.314     559.988
  H     -246.359    -275.498     562.710
  H     -245.369    -274.364     561.822
  H     -244.670    -275.308     563.115

 6  7  8  9  10  11  12  13  14  15  16  26  31  32  33  34  35 0
 6-311+G(2d,p)
 ****
 36  37 0
 6-311+G(2d,p)
 ****
 1  2  3  4  5  17  18  19  20  21  22  23  24  25 0
 3-21G
 ****
 27  28  29  30  38  39  40  41  42  43  44  45 0
 3-21G
 ****


