%nproc=1
%NoSave
%Mem=1900MB
#P OB98/GEN NMR

erre ene a

0 1
  C     -645.114      -6.788    -494.997
  O     -644.427      -6.086    -496.034
  P     -644.341      -6.731    -497.495
  C     -645.107      -4.977    -499.244
  O     -645.480      -6.085    -498.434
  C     -645.856      -3.719    -498.809
  O     -645.453      -3.298    -497.488
  C     -645.568      -2.520    -499.698
  O     -646.083      -2.555    -501.015
  C     -645.984      -1.351    -498.819
  O     -647.400      -1.125    -498.886
  C     -645.581      -1.860    -497.411
  N     -644.357      -1.238    -496.916
  C     -644.512      -0.002    -496.288
  O     -645.600       0.572    -496.194
  N     -643.365       0.567    -495.812
  C     -642.103       0.054    -495.923
  O     -641.105       0.627    -495.499
  C     -642.002      -1.235    -496.614
  C     -643.113      -1.822    -497.071
  O     -644.244      -8.215    -497.549
  O     -643.001      -6.063    -498.094
  H     -647.843      -1.946    -498.604
  H     -642.518      -6.757    -498.582
  H     -643.458       1.460    -495.348
  H     -641.017      -1.673    -496.728
  H     -643.063      -2.781    -497.587
  H     -646.381      -1.656    -496.688
  H     -645.502      -0.413    -499.121
  H     -644.477      -2.439    -499.820
  H     -646.925      -3.943    -498.772
  H     -645.329      -5.205    -500.299
  H     -644.024      -4.843    -499.183
  P     -645.243      -3.076    -502.269
  C     -646.963      -4.540    -503.547
  O     -645.828      -4.504    -502.721
  O     -643.751      -2.938    -502.212
  O     -645.788      -2.128    -503.437
  H     -645.063      -1.967    -504.075
  H     -647.236      -5.581    -503.736
  H     -646.748      -4.058    -504.513
  H     -647.810      -4.042    -503.070
  H     -645.074      -6.217    -494.093
  H     -644.647      -7.738    -494.840
  H     -646.135      -6.935    -495.282

 3  4  5  6  7  8  9  10  11  12  13  23  28  29  30  31  32 0
 6-311+G(2d,p)
 ****
 33  34 0
 6-311+G(2d,p)
 ****
 1  2  14  15  16  17  18  19  20  21  22  24  25  26  27 0
 3-21G
 ****
 35  36  37  38  39  40  41  42  43  44  45 0
 3-21G
 ****


