%nproc=1
%NoSave
%Mem=1900MB
#P OB98/GEN NMR

erre ene a

0 1
  C      504.579    -380.395     -36.943
  O      503.562    -379.593     -37.554
  P      503.876    -378.292     -38.441
  C      502.035    -378.793     -40.190
  O      502.538    -377.877     -39.220
  C      500.891    -378.168     -40.992
  O      499.870    -377.660     -40.098
  C      501.271    -376.959     -41.834
  O      502.012    -377.319     -42.986
  C      499.895    -376.359     -42.134
  O      499.282    -376.993     -43.261
  C      499.110    -376.685     -40.843
  N      498.826    -375.505     -40.044
  C      497.526    -375.012     -40.092
  O      496.698    -375.509     -40.855
  N      497.195    -373.947     -39.285
  C      498.114    -373.365     -38.579
  N      497.723    -372.325     -37.786
  C      499.530    -373.769     -38.601
  C      499.815    -374.843     -39.344
  O      505.071    -378.438     -39.332
  O      504.088    -377.102     -37.381
  H      504.668    -376.416     -37.774
  H      499.143    -377.932     -43.014
  H      500.270    -373.239     -38.026
  H      500.831    -375.221     -39.408
  H      498.170    -377.183     -41.103
  H      499.961    -375.287     -42.358
  H      501.851    -376.258     -41.220
  H      500.446    -378.951     -41.624
  H      496.746    -372.082     -37.785
  H      501.662    -379.678     -39.662
  H      498.356    -371.823     -37.177
  H      502.856    -379.106     -40.850
  P      503.429    -376.588     -43.194
  C      504.354    -378.720     -44.367
  O      504.172    -377.317     -44.420
  O      504.278    -377.038     -41.910
  O      503.349    -375.102     -43.305
  H      504.821    -376.285     -41.601
  H      504.408    -379.098     -45.390
  H      503.540    -379.213     -43.841
  H      505.301    -378.935     -43.866
  H      504.123    -381.201     -36.407
  H      505.149    -379.794     -36.266
  H      505.225    -380.789     -37.700

 3  4  5  6  7  8  9  10  11  12  13  24  27  28  29  30  32 0
 6-311+G(2d,p)
 ****
 34  35 0
 6-311+G(2d,p)
 ****
 1  2  14  15  16  17  18  19  20  21  22  23  25  26 0
 3-21G
 ****
 31  33  36  37  38  39  40  41  42  43  44  45  46 0
 3-21G
 ****


