%nproc=1
%NoSave
%Mem=1900MB
#P OB98/GEN NMR

erre ene a

0 1
  C      141.443     443.719    -389.716
  O      141.806     442.785    -390.739
  P      141.354     441.247    -390.608
  C      139.373     441.529    -392.254
  O      139.793     441.131    -390.951
  C      139.025     440.293    -393.093
  O      137.973     439.508    -392.463
  C      138.470     440.651    -394.469
  O      139.381     441.213    -395.384
  C      137.768     439.364    -394.875
  O      138.687     438.419    -395.432
  C      137.231     438.864    -393.517
  N      135.785     439.091    -393.369
  C      134.959     438.445    -394.278
  O      135.389     437.751    -395.200
  N      133.617     438.654    -394.121
  C      133.028     439.455    -393.180
  O      131.822     439.624    -393.100
  C      133.955     440.134    -392.262
  C      135.267     439.929    -392.395
  O      141.794     440.550    -389.365
  O      142.037     440.570    -391.895
  H      139.423     438.318    -394.803
  H      142.386     439.701    -391.622
  H      133.003     438.186    -394.771
  H      133.528     440.784    -391.510
  H      135.971     440.422    -391.721
  H      137.402     437.782    -393.411
  H      136.998     439.553    -395.636
  H      137.686     441.411    -394.329
  H      139.910     439.658    -393.170
  H      140.166     442.101    -392.736
  H      138.516     442.202    -392.160
  P      139.255     442.719    -395.940
  C      141.385     443.787    -394.903
  O      139.976     443.696    -394.892
  O      137.929     443.148    -396.478
  O      140.319     442.703    -397.142
  H      139.992     443.302    -397.849
  H      141.701     444.476    -394.118
  H      141.745     444.152    -395.863
  H      141.826     442.804    -394.695
  H      141.824     444.687    -389.965
  H      141.857     443.403    -388.781
  H      140.377     443.765    -389.637

 3  4  5  6  7  8  9  10  11  12  13  23  28  29  30  31  32 0
 6-311+G(2d,p)
 ****
 33  34 0
 6-311+G(2d,p)
 ****
 1  2  14  15  16  17  18  19  20  21  22  24  25  26  27 0
 3-21G
 ****
 35  36  37  38  39  40  41  42  43  44  45 0
 3-21G
 ****


