%nproc=1
%NoSave
%Mem=1900MB
#P OB98/GEN NMR

erre ene a

0 1
  C      -73.410      21.270      26.969
  O      -73.041      21.610      28.293
  H      -72.595      21.550      26.297
  H      -74.311      21.815      26.678
  H      -73.580      20.193      26.892
  P      -74.103      21.255      29.444
  C      -74.894      18.972      30.374
  O      -74.373      19.685      29.259
  C      -75.942      17.959      29.918
  O      -77.062      18.628      29.312
  C      -75.443      16.963      28.877
  O      -74.718      15.911      29.494
  C      -76.762      16.475      28.298
  O      -77.346      15.493      29.176
  C      -77.622      17.752      28.297
  N      -80.298      18.557      23.992
  C      -80.445      17.653      24.985
  N      -79.673      17.470      26.075
  C      -78.652      18.343      26.089
  C      -78.375      19.323      25.147
  C      -79.258      19.421      24.060
  N      -79.110      20.353      23.056
  N      -77.242      20.030      25.494
  C      -76.875      19.520      26.654
  N      -77.674      18.473      27.037
  O      -75.304      22.132      29.508
  O      -73.165      21.288      30.743
  H      -77.701      15.966      29.952
  H      -72.292      20.909      30.544
  H      -81.300      16.990      24.890
  H      -76.052      19.884      27.257
  H      -78.659      17.544      28.579
  H      -76.636      15.997      27.325
  H      -74.869      17.461      28.091
  H      -76.316      17.440      30.809
  H      -75.335      19.663      31.097
  H      -79.685      20.244      22.232
  H      -78.269      20.911      23.043
  H      -74.056      18.456      30.854
  P      -73.539      15.162      28.705
  C      -71.056      15.762      28.411
  O      -72.392      16.255      28.451
  O      -73.969      14.420      27.486
  O      -72.882      14.192      29.790
  H      -72.630      13.343      29.380
  H      -70.381      16.574      28.237
  H      -70.964      15.046      27.621
  H      -70.820      15.296      29.345

 6  7  8  9  10  11  12  13  14  15  25  28  32  33  34  35 0
 6-311+G(2d,p)
 ****
 36  39  40 0
 6-311+G(2d,p)
 ****
 1  2  3  4  5  16  17  18  19  20  21  22  23  24 0
 3-21G
 ****
 26  27  29  30  31  37  38  41  42  43  44  45  46  47 0
 3-21G
 ****
 48 0
 3-21G
 ****


