%nproc=1
%NoSave
%Mem=1900MB
#P OB98/GEN NMR

erre ene a

0 1
  C       -5.400     -39.917      15.666
  O       -5.388     -38.508      15.518
  P       -4.143     -37.856      14.739
  C       -4.118     -36.340      16.849
  O       -3.846     -36.451      15.456
  C       -3.913     -34.906      17.342
  O       -4.339     -34.820      18.723
  C       -2.465     -34.419      17.262
  O       -2.488     -33.037      16.902
  C       -1.970     -34.547      18.690
  O       -0.882     -33.664      18.952
  C       -3.253     -34.249      19.481
  N       -3.204     -34.788      20.836
  C       -2.885     -33.892      21.861
  O       -2.585     -32.729      21.591
  N       -2.863     -34.347      23.155
  C       -3.037     -35.610      23.394
  N       -3.009     -36.012      24.692
  C       -3.253     -36.609      22.329
  C       -3.346     -36.130      21.090
  O       -4.783     -37.426      13.338
  O       -2.969     -38.763      14.573
  H       -0.553     -33.847      19.861
  H       -4.124     -37.491      12.621
  H       -3.355     -37.655      22.579
  H       -3.527     -36.786      20.249
  H       -3.425     -33.166      19.542
  H       -1.634     -35.575      18.877
  H       -1.867     -34.980      16.538
  H       -4.568     -34.247      16.759
  H       -2.845     -35.310      25.403
  H       -3.432     -36.991      17.398
  H       -3.134     -36.975      24.973
  H       -5.140     -36.675      17.046
  P       -1.508     -32.558      15.726
  C       -0.348     -31.074      17.470
  O       -0.963     -31.126      16.199
  O       -2.559     -32.141      14.587
  O       -0.502     -33.528      15.204
  H       -2.079     -31.885      13.778
  H        0.094     -30.084      17.605
  H        0.441     -31.826      17.546
  H       -1.096     -31.234      18.253
  H       -6.279     -40.212      16.200
  H       -4.532     -40.226      16.210
  H       -5.398     -40.377      14.700

 3  4  5  6  7  8  9  10  11  12  13  21  23  27  28  29  30  32 0
 6-311+G(2d,p)
 ****
 34  35 0
 6-311+G(2d,p)
 ****
 1  2  14  15  16  17  18  19  20  22  24  25  26 0
 3-21G
 ****
 31  33  36  37  38  39  40  41  42  43  44  45  46 0
 3-21G
 ****


