%nproc=1
%NoSave
%Mem=1900MB
#P OB98/GEN NMR

erre ene a

0 1
  C     -218.484      21.453     163.125
  O     -217.858      20.374     163.825
  P     -217.255      19.187     162.931
  C     -219.547      18.055     162.482
  O     -218.400      18.685     161.929
  C     -220.409      17.462     161.367
  O     -219.607      16.792     160.370
  C     -221.397      16.410     161.857
  O     -222.491      17.012     162.528
  C     -221.755      15.720     160.547
  O     -222.720      16.496     159.818
  C     -220.411      15.731     159.801
  N     -220.564      10.727     158.745
  C     -221.447      11.725     158.520
  N     -221.332      13.032     158.835
  C     -220.154      13.275     159.432
  C     -219.156      12.363     159.724
  C     -219.394      11.028     159.355
  N     -218.501      10.008     159.600
  N     -218.092      12.987     160.345
  C     -218.455      14.249     160.447
  N     -219.689      14.476     159.900
  O     -217.103      17.983     163.973
  O     -215.952      19.528     162.288
  H     -222.784      16.110     158.920
  H     -216.159      17.829     164.172
  H     -222.370      11.433     158.023
  H     -217.864      15.033     160.907
  H     -220.531      15.950     158.734
  H     -222.180      14.720     160.690
  H     -220.891      15.702     162.529
  H     -220.953      18.285     160.883
  H     -220.133      18.773     163.060
  H     -218.783       9.069     159.374
  H     -217.665      10.210     160.131
  H     -219.220      17.279     163.182
  P     -222.524      16.928     164.129
  C     -224.717      15.594     164.224
  O     -223.318      15.559     164.421
  O     -223.610      18.043     164.489
  O     -221.199      17.064     164.797
  H     -224.397      17.978     163.918
  H     -225.122      14.598     164.420
  H     -224.949      15.873     163.194
  H     -225.176      16.304     164.916
  H     -218.842      22.175     163.829
  H     -219.305      21.077     162.551
  H     -217.773      21.914     162.472

 3  4  5  6  7  8  9  10  11  12  22  25  29  30  31  32 0
 6-311+G(2d,p)
 ****
 33  36  37 0
 6-311+G(2d,p)
 ****
 1  2  13  14  15  16  17  18  19  20  21  23  24  26 0
 3-21G
 ****
 27  28  34  35  38  39  40  41  42  43  44  45  46  47  48 0
 3-21G
 ****


