%nproc=1
%NoSave
%Mem=1900MB
#P OB98/GEN NMR

erre ene a

0 1
  C      472.126      98.705    -249.038
  O      472.796      98.916    -247.814
  H      471.083      98.444    -248.823
  H      472.579      97.881    -249.589
  H      472.140      99.615    -249.646
  P      474.391      99.127    -247.824
  C      474.350     100.947    -246.009
  O      474.750      99.614    -246.327
  C      474.847     101.360    -244.619
  O      474.204     100.544    -243.615
  C      476.364     101.221    -244.430
  O      476.879     102.409    -243.814
  C      476.503     100.034    -243.491
  O      477.725     100.063    -242.757
  C      475.226     100.166    -242.653
  N      474.870      98.940    -241.952
  C      475.656      98.623    -240.829
  O      476.589      99.354    -240.498
  N      475.365      97.483    -240.126
  C      474.419      96.692    -240.530
  N      474.185      95.564    -239.793
  C      473.603      96.960    -241.735
  C      473.875      98.092    -242.389
  O      474.896     100.016    -248.912
  O      474.994      97.646    -247.873
  H      477.715     100.861    -242.175
  H      475.925      97.681    -248.194
  H      472.834      96.263    -242.043
  H      473.319      98.380    -243.279
  H      475.318     100.974    -241.925
  H      476.475      99.102    -244.066
  H      476.897     101.060    -245.362
  H      474.518     102.386    -244.430
  H      474.776      95.422    -238.979
  H      473.256     101.004    -246.059
  H      473.483      94.877    -240.024
  H      474.783     101.619    -246.757
  P      478.392     102.800    -244.199
  C      477.677     105.213    -244.852
  O      478.535     104.399    -244.055
  O      478.440     102.552    -245.783
  O      479.427     102.009    -243.480
  H      478.864     101.699    -245.979
  H      477.880     106.245    -244.655
  H      476.657     104.998    -244.611
  H      477.850     105.007    -245.888

 6  7  8  9  10  11  12  13  14  15  16  26  30  31  32  33  35 0
 6-311+G(2d,p)
 ****
 37  38 0
 6-311+G(2d,p)
 ****
 1  2  3  4  5  17  18  19  20  21  22  23  24  25 0
 3-21G
 ****
 27  28  29  34  36  39  40  41  42  43  44  45  46 0
 3-21G
 ****


