%nproc=1
%NoSave
%Mem=1900MB
#P OB98/GEN NMR

erre ene a

0 1
  C       48.606     -69.593     -17.354
  O       49.823     -68.878     -17.298
  H       47.902     -69.040     -17.982
  H       48.180     -69.689     -16.351
  H       48.765     -70.584     -17.788
  P       51.013     -69.545     -16.454
  C       51.936     -70.792     -18.541
  O       51.408     -70.896     -17.224
  C       53.454     -70.644     -18.477
  O       54.017     -71.766     -17.761
  C       54.140     -70.641     -19.839
  O       54.044     -69.381     -20.477
  C       55.563     -71.020     -19.453
  O       56.311     -69.880     -19.010
  C       55.345     -71.988     -18.283
  N       58.572     -75.370     -20.313
  C       58.721     -74.072     -19.970
  N       57.813     -73.242     -19.414
  C       56.651     -73.885     -19.208
  C       56.349     -75.201     -19.513
  C       57.376     -75.964     -20.091
  N       57.214     -77.274     -20.473
  N       55.035     -75.482     -19.195
  C       54.556     -74.359     -18.700
  N       55.498     -73.371     -18.684
  O       50.266     -70.065     -15.135
  O       52.152     -68.638     -16.132
  H       57.079     -70.224     -18.516
  H       50.345     -69.396     -14.430
  H       59.698     -73.642     -20.173
  H       53.541     -74.213     -18.351
  H       56.049     -71.809     -17.461
  H       56.102     -71.453     -20.297
  H       53.723     -71.431     -20.475
  H       53.692     -69.730     -17.919
  H       51.509     -69.911     -19.033
  H       51.659     -71.687     -19.106
  H       57.988     -77.754     -20.903
  H       56.296     -77.694     -20.409
  P       54.230     -69.313     -22.066
  C       51.685     -69.713     -22.423
  O       53.010     -70.114     -22.733
  O       55.494     -70.257     -22.328
  O       54.436     -67.940     -22.611
  H       56.299     -69.722     -22.451
  H       50.992     -70.341     -22.943
  H       51.540     -68.696     -22.724
  H       51.524     -69.799     -21.369

 6  7  8  9  10  11  12  13  14  15  25  28  32  33  34  35 0
 6-311+G(2d,p)
 ****
 36  37  40 0
 6-311+G(2d,p)
 ****
 1  2  3  4  5  16  17  18  19  20  21  22  23  24 0
 3-21G
 ****
 26  27  29  30  31  38  39 41  42  43  44  45  46  47  48 0
 3-21G
 ****


