%nproc=1
%NoSave
%Mem=1900MB
#P OB98/GEN NMR

erre ene a

0 1
  C     -288.475    -189.715    -257.541
  O     -289.829    -190.019    -257.203
  P     -290.492    -191.373    -257.743
  C     -290.682    -192.487    -255.413
  O     -290.151    -192.569    -256.732
  C     -291.113    -193.879    -254.940
  O     -292.208    -194.394    -255.732
  C     -290.013    -194.923    -255.072
  O     -288.907    -194.793    -254.199
  C     -290.794    -196.224    -255.016
  O     -291.071    -196.616    -253.674
  C     -292.102    -195.834    -255.748
  N     -292.158    -196.352    -257.119
  C     -291.972    -197.726    -257.260
  O     -291.732    -198.475    -256.316
  N     -292.038    -198.202    -258.544
  C     -292.228    -197.456    -259.671
  O     -292.255    -197.939    -260.798
  C     -292.388    -196.011    -259.460
  C     -292.344    -195.529    -258.215
  O     -290.269    -191.674    -259.186
  O     -292.057    -191.131    -257.464
  H     -291.566    -197.452    -253.707
  H     -292.550    -191.477    -258.233
  H     -291.916    -199.196    -258.662
  H     -292.540    -195.391    -260.331
  H     -292.470    -194.468    -258.039
  H     -292.972    -196.224    -255.211
  H     -290.240    -197.049    -255.479
  H     -289.603    -194.843    -256.088
  H     -291.469    -193.796    -253.906
  H     -291.535    -191.802    -255.402
  H     -289.924    -192.055    -254.751
  P     -287.540    -194.066    -254.620
  C     -287.582    -192.395    -252.640
  O     -287.561    -192.577    -254.038
  O     -287.067    -194.250    -256.022
  O     -286.487    -194.785    -253.637
  H     -285.632    -194.848    -254.096
  H     -287.613    -191.317    -252.423
  H     -286.685    -192.815    -252.182
  H     -288.476    -192.858    -252.212
  H     -288.198    -188.780    -257.099
  H     -288.379    -189.649    -258.605
  H     -287.833    -190.488    -257.172

 3  4  5  6  7  8  9  10  11  12  13  23  28  29  30  31  32 0
 6-311+G(2d,p)
 ****
 33  34 0
 6-311+G(2d,p)
 ****
 1  2  14  15  16  17  18  19  20  21  22  24  25  26  27 0
 3-21G
 ****
 35  36  37  38  39  40  41  42  43  44  45 0
 3-21G
 ****


