%nproc=1
%NoSave
%Mem=1900MB
#P OB98/GEN NMR

erre ene a

0 1
  C       42.949    -165.506    -127.434
  O       41.802    -165.013    -128.106
  P       40.535    -165.955    -128.408
  C       41.336    -166.385    -130.830
  O       41.013    -166.951    -129.571
  C       41.231    -167.443    -131.930
  O       42.240    -168.461    -131.694
  C       39.870    -168.149    -132.002
  O       39.606    -168.427    -133.381
  C       40.116    -169.435    -131.234
  O       39.189    -170.457    -131.568
  C       41.567    -169.733    -131.629
  N       42.230    -170.631    -130.691
  C       41.776    -171.949    -130.618
  O       40.830    -172.331    -131.307
  N       42.406    -172.815    -129.758
  C       43.349    -172.384    -128.978
  N       43.981    -173.295    -128.191
  C       43.786    -170.976    -128.945
  C       43.207    -170.172    -129.834
  O       39.269    -165.225    -128.695
  O       40.458    -166.932    -127.148
  H       38.364    -170.297    -131.071
  H       39.959    -166.540    -126.387
  H       44.556    -170.656    -128.257
  H       43.480    -169.126    -129.898
  H       41.605    -170.160    -132.637
  H       40.033    -169.241    -130.161
  H       39.057    -167.543    -131.594
  H       41.465    -166.966    -132.891
  H       43.773    -174.273    -128.366
  H       42.366    -166.018    -130.790
  H       44.905    -173.109    -127.818
  H       40.675    -165.534    -131.036
  P       38.203    -167.952    -133.999
  C       37.158    -170.320    -134.183
  O       37.093    -169.036    -133.601
  O       38.417    -168.255    -135.564
  O       37.844    -166.516    -133.807
  H       37.837    -167.666    -136.083
  H       36.333    -170.925    -133.794
  H       38.099    -170.813    -133.924
  H       37.059    -170.254    -135.270
  H       43.670    -164.721    -127.336
  H       43.373    -166.312    -127.996
  H       42.670    -165.857    -126.463

 3  4  5  6  7  8  9  10  11  12  13  23  27  28  29  30  32 0
 6-311+G(2d,p)
 ****
 34  35 0
 6-311+G(2d,p)
 ****
 1  2  14  15  16  17  18  19  20  21  22  24  25  26 0
 3-21G
 ****
 31  33  36  37  38  39  40  41  42  43  44  45  46 0
 3-21G
 ****


