%nproc=1
%NoSave
%Mem=1900MB
#P OB98/GEN NMR

erre ene a

0 1
  C       66.395    -214.687      23.772
  O       66.637    -216.048      23.473
  H       67.352    -214.200      23.972
  H       65.762    -214.594      24.660
  H       65.917    -214.190      22.923
  P       65.381    -217.011      23.219
  C       63.637    -218.179      24.735
  O       64.893    -217.509      24.663
  C       63.203    -218.349      26.194
  O       63.109    -217.062      26.842
  C       61.828    -218.997      26.362
  O       61.902    -220.391      26.119
  C       61.508    -218.600      27.793
  O       62.209    -219.435      28.728
  C       62.059    -217.154      27.835
  N       61.036    -216.136      27.605
  C       60.201    -215.844      28.693
  O       60.341    -216.446      29.760
  N       59.223    -214.894      28.529
  C       59.115    -214.257      27.404
  N       58.121    -213.319      27.307
  C       59.997    -214.507      26.246
  C       60.917    -215.455      26.410
  O       65.580    -218.109      22.222
  O       64.212    -216.012      22.765
  H       62.128    -218.998      29.595
  H       64.172    -215.947      21.793
  H       59.877    -213.948      25.329
  H       61.611    -215.704      25.611
  H       62.531    -216.951      28.810
  H       60.446    -218.688      28.019
  H       61.096    -218.520      25.698
  H       63.978    -218.925      26.716
  H       57.558    -213.173      28.135
  H       63.765    -219.159      24.266
  H       58.053    -212.663      26.547
  H       62.871    -217.624      24.177
  P       60.695    -221.185      25.427
  C       58.328    -221.885      26.162
  O       59.456    -221.072      26.452
  O       61.020    -222.574      24.981
  O       60.240    -220.225      24.232
  H       60.872    -220.292      23.472
  H       57.574    -221.727      26.905
  H       58.620    -222.914      26.164
  H       57.940    -221.626      25.199

 6  7  8  9  10  11  12  13  14  15  16  26  30  31  32  33  35 0
 6-311+G(2d,p)
 ****
 37  38 0
 6-311+G(2d,p)
 ****
 1  2  3  4  5  17  18  19  20  21  22  23  24  25 0
 3-21G
 ****
 27  28  29  34  36  39  40  41  42  43  44  45  46 0
 3-21G
 ****


