%nproc=1
%NoSave
%Mem=1900MB
#P OB98/GEN NMR

erre ene a

0 1
  C     -107.090     -79.856    -123.807
  O     -107.943     -80.785    -123.125
  P     -107.242     -81.693    -121.996
  C     -107.817     -80.304    -119.877
  O     -108.053     -81.493    -120.622
  C     -109.038     -79.900    -119.046
  O     -109.962     -79.164    -119.885
  C     -109.818     -81.072    -118.437
  O     -110.294     -80.681    -117.140
  C     -111.029     -81.196    -119.345
  O     -112.122     -81.845    -118.701
  C     -111.270     -79.726    -119.685
  N     -115.902     -78.613    -121.387
  C     -115.405     -78.585    -120.099
  N     -116.272     -78.232    -119.124
  N     -114.167     -78.876    -119.792
  C     -113.405     -79.181    -120.871
  C     -113.779     -79.233    -122.196
  C     -115.162     -78.950    -122.513
  O     -115.677     -79.010    -123.627
  N     -112.722     -79.583    -123.001
  C     -111.716     -79.748    -122.166
  N     -112.082     -79.524    -120.863
  O     -105.850     -80.946    -121.740
  O     -107.031     -83.112    -122.411
  H     -111.829     -82.750    -118.483
  H     -105.109     -81.566    -121.883
  H     -116.868     -78.402    -121.563
  H     -110.716     -80.051    -122.444
  H     -111.743     -79.195    -118.850
  H     -110.758     -81.779    -120.234
  H     -117.220     -77.934    -119.297
  H     -109.251     -82.004    -118.362
  H     -115.914     -78.161    -118.180
  H     -108.702     -79.216    -118.257
  H     -107.565     -79.491    -120.563
  H     -106.953     -80.468    -119.223
  P     -109.581     -81.375    -115.882
  C     -108.628     -79.273    -114.681
  O     -109.613     -80.287    -114.706
  O     -108.039     -81.426    -116.309
  O     -110.121     -82.726    -115.540
  H     -107.588     -82.166    -115.861
  H     -108.050     -79.236    -115.609
  H     -107.946     -79.460    -113.847
  H     -109.118     -78.307    -114.531
  H     -107.661     -79.311    -124.530
  H     -106.305     -80.389    -124.301
  H     -106.667     -79.174    -123.099

 3  4  5  6  7  8  9  10  11  12  23  26  30  31  33  0
 6-311+G(2d,p)
 ****
 35  36  37  38 0
 6-311+G(2d,p)
 ****
 1  2  13  14  15  16  17  18  19  20  21  22  24  25  27  28  29 0
 3-21G
 ****
 32  34  39  40  41  42  43  44  45  46  47  48  49 0
 3-21G
 ****


