%nproc=1
%NoSave
%Mem=1900MB
#P OB98/GEN NMR

erre ene a

0 1
  C       25.761     -77.267    -115.241
  O       27.114     -76.973    -115.540
  P       27.673     -75.517    -115.175
  C       26.465     -74.701    -117.324
  O       27.627     -74.622    -116.506
  C       26.446     -73.570    -118.358
  O       25.227     -73.643    -119.136
  C       26.506     -72.170    -117.735
  O       27.236     -71.290    -118.606
  C       25.061     -71.720    -117.745
  O       24.957     -70.293    -117.718
  C       24.570     -72.361    -119.042
  N       20.186     -70.064    -120.079
  C       21.473     -69.693    -120.415
  N       21.610     -68.502    -121.046
  N       22.524     -70.426    -120.173
  C       22.237     -71.585    -119.534
  C       20.997     -72.071    -119.159
  C       19.845     -71.241    -119.424
  O       18.683     -71.503    -119.125
  N       21.106     -73.303    -118.566
  C       22.403     -73.546    -118.538
  N       23.130     -72.520    -119.081
  O       29.239     -75.779    -114.954
  O       27.059     -74.900    -113.965
  H       25.084     -69.985    -118.641
  H       29.448     -75.758    -114.002
  H       19.401     -69.461    -120.279
  H       22.861     -74.436    -118.120
  H       24.867     -71.774    -119.921
  H       24.532     -72.118    -116.871
  H       20.841     -67.863    -121.204
  H       26.946     -72.138    -116.729
  H       22.542     -68.188    -121.263
  H       27.282     -73.722    -119.052
  H       25.577     -74.619    -116.691
  H       26.440     -75.674    -117.828
  P       28.528     -70.577    -117.961
  C       27.127     -69.042    -116.387
  O       28.026     -69.133    -117.476
  O       29.441     -70.255    -119.238
  O       29.236     -71.403    -116.944
  H       30.381     -70.195    -118.972
  H       27.614     -68.504    -115.567
  H       26.809     -70.029    -116.027
  H       26.246     -68.478    -116.702
  H       25.539     -78.270    -115.541
  H       25.124     -76.588    -115.767
  H       25.598     -77.166    -114.188

 3  4  5  6  7  8  9  10  11  12  23  26  30  31 0
 6-311+G(2d,p)
 ****
 33  35  36  37  38 0
 6-311+G(2d,p)
 ****
 1  2  13  14  15  16  17  18  19  20  21  22  24  25 0
 3-21G
 ****
 27  28  29  32  34  39  40  41  42  43  44  45  46  47  48  49 0
 3-21G
 ****


