%nproc=1
%NoSave
%Mem=1900MB
#P OB98/GEN NMR

erre ene a

0 1
  C     -440.980    -128.507    -787.667
  O     -440.942    -128.294    -786.265
  P     -439.695    -127.539    -785.590
  C     -440.965    -126.093    -783.863
  O     -440.153    -127.249    -784.069
  C     -441.615    -126.133    -782.484
  O     -442.695    -127.093    -782.463
  C     -440.676    -126.544    -781.358
  O     -439.834    -125.457    -780.983
  C     -441.678    -126.953    -780.281
  O     -442.168    -125.816    -779.555
  C     -442.808    -127.610    -781.117
  N     -442.745    -129.059    -781.095
  C     -443.866    -129.714    -780.556
  O     -444.806    -129.054    -780.101
  N     -443.868    -131.082    -780.492
  C     -442.844    -131.746    -780.900
  N     -442.896    -133.108    -780.809
  C     -441.633    -131.110    -781.456
  C     -441.647    -129.780    -781.526
  O     -439.175    -126.363    -786.342
  O     -438.614    -128.712    -785.408
  H     -441.388    -125.417    -779.124
  H     -438.202    -128.946    -786.281
  H     -440.789    -131.701    -781.792
  H     -440.804    -129.217    -781.899
  H     -443.788    -127.297    -780.749
  H     -441.228    -127.635    -779.548
  H     -440.093    -127.401    -781.663
  H     -442.045    -125.144    -782.277
  H     -443.740    -133.498    -780.395
  H     -441.741    -126.074    -784.636
  H     -442.150    -133.721    -781.072
  H     -440.345    -125.191    -783.970
  P     -438.293    -125.714    -780.678
  C     -437.910    -123.172    -780.467
  O     -437.738    -124.449    -779.849
  O     -437.464    -126.137    -781.846
  O     -438.332    -126.873    -779.565
  H     -437.649    -127.549    -779.792
  H     -437.797    -122.407    -779.713
  H     -438.880    -123.097    -780.954
  H     -437.115    -123.045    -781.227
  H     -441.882    -129.021    -787.925
  H     -440.137    -129.096    -787.961
  H     -440.950    -127.564    -788.172

 3  4  5  6  7  8  9  10  11  12  13  23  27  28  29  30  32 0
 6-311+G(2d,p)
 ****
 34  35 0
 6-311+G(2d,p)
 ****
 1  2  14  15  16  17  18  19  20  21  22  24  25  26 0
 3-21G
 ****
 31  33  36  37  38  39  40  41  42  43  44  45  46 0
 3-21G
 ****


