%nproc=1
%NoSave
%Mem=1900MB
#P OB98/GEN NMR

erre ene a

0 1
  C      363.254     127.752     328.295
  O      364.427     127.756     327.495
  P      365.355     129.056     327.407
  C      367.351     127.914     328.681
  O      366.875     128.594     327.537
  C      368.887     127.902     328.657
  O      369.353     126.945     327.685
  C      369.451     129.274     328.280
  O      369.759     130.026     329.445
  C      370.665     128.907     327.448
  O      371.786     128.583     328.295
  C      370.171     127.645     326.704
  N      369.361     127.826     325.487
  C      369.870     128.561     324.419
  O      371.006     129.045     324.405
  N      369.027     128.728     323.346
  C      367.767     128.210     323.236
  O      366.944     128.565     322.402
  C      367.392     127.236     324.269
  C      368.182     127.103     325.332
  O      365.073     129.790     328.794
  O      365.105     129.951     326.237
  H      371.493     127.883     328.896
  H      364.421     130.518     328.679
  H      369.343     129.379     322.629
  H      366.462     126.692     324.144
  H      367.899     126.414     326.133
  H      371.008     126.983     326.436
  H      370.986     129.756     326.831
  H      368.741     129.818     327.639
  H      369.252     127.594     329.645
  H      366.959     126.894     328.700
  H      366.991     128.414     329.590
  P      369.171     131.501     329.610
  C      367.882     130.727     331.689
  O      368.840     131.642     331.172
  O      368.059     131.869     328.671
  O      370.457     132.434     329.398
  H      370.485     132.767     328.475
  H      367.884     130.807     332.783
  H      368.148     129.705     331.407
  H      366.894     130.976     331.312
  H      362.775     126.798     328.221
  H      362.586     128.514     327.952
  H      363.517     127.941     329.315

 3  4  5  6  7  8  9  10  11  12  13  23  28  29  30  31  32 0
 6-311+G(2d,p)
 ****
 33  34 0
 6-311+G(2d,p)
 ****
 1  2  14  15  16  17  18  19  20  21  22  24  25  26  27 0
 3-21G
 ****
 35  36  37  38  39  40  41  42  43  44  45 0
 3-21G
 ****


