%nproc=1
%NoSave
%Mem=1900MB
#P OB98/GEN NMR

erre ene a

0 1
  C     -216.874    -255.392    -273.202
  O     -216.016    -254.930    -274.237
  P     -216.583    -254.958    -275.743
  C     -215.490    -252.696    -276.397
  O     -216.697    -253.423    -276.190
  C     -215.514    -251.383    -275.617
  O     -215.523    -251.647    -274.201
  C     -214.312    -250.484    -275.857
  O     -214.442    -249.718    -277.047
  C     -214.378    -249.580    -274.636
  O     -215.380    -248.563    -274.833
  C     -214.827    -250.556    -273.542
  N     -211.389    -249.501    -269.906
  C     -212.311    -248.732    -270.521
  N     -213.183    -249.085    -271.489
  C     -213.011    -250.371    -271.840
  C     -212.083    -251.265    -271.328
  C     -211.247    -250.790    -270.305
  N     -210.324    -251.580    -269.662
  N     -212.204    -252.495    -271.940
  C     -213.193    -252.348    -272.801
  N     -213.719    -251.085    -272.769
  O     -218.110    -255.396    -275.541
  O     -215.857    -255.867    -276.671
  H     -214.981    -247.882    -275.408
  H     -218.454    -255.799    -276.365
  H     -212.366    -247.705    -270.186
  H     -213.564    -253.127    -273.453
  H     -215.533    -250.100    -272.837
  H     -213.435    -249.067    -274.436
  H     -213.374    -251.055    -275.839
  H     -216.445    -250.860    -275.871
  H     -215.380    -252.476    -277.462
  H     -209.900    -251.223    -268.820
  H     -210.366    -252.583    -269.820
  H     -214.643    -253.314    -276.078
  P     -213.480    -250.110    -278.270
  C     -215.408    -250.674    -279.921
  O     -214.319    -251.153    -279.152
  O     -212.353    -251.011    -277.573
  O     -212.909    -248.939    -278.995
  H     -211.526    -250.975    -278.089
  H     -215.658    -251.426    -280.676
  H     -215.151    -249.742    -280.428
  H     -216.277    -250.518    -279.277
  H     -216.370    -255.317    -272.261
  H     -217.137    -256.413    -273.385
  H     -217.761    -254.794    -273.180

 3  4  5  6  7  8  9  10  11  12  22  25  29  30  31  32 0
 6-311+G(2d,p)
 ****
 33  36  37 0
 6-311+G(2d,p)
 ****
 1  2  13  14  15  16  17  18  19  20  21  23  24  26 0
 3-21G
 ****
 27  28  34  35  38  39  40  41  42  43  44  45  46  47  48 0
 3-21G
 ****


