%nproc=1
%NoSave
%Mem=1900MB
#P OB98/GEN NMR

erre ene a

0 1
  C      245.345     269.717     260.905
  O      244.728     270.987     261.019
  P      245.367     272.325     260.421
  C      243.104     273.610     260.503
  O      244.467     273.569     260.911
  C      242.369     274.861     260.994
  O      243.024     276.038     260.465
  C      240.940     274.881     260.445
  O      239.914     274.162     261.103
  C      240.634     276.355     260.196
  O      239.875     276.947     261.256
  C      242.018     276.998     260.100
  N      240.808     280.352     256.499
  C      240.433     280.328     257.826
  N      239.460     281.204     258.178
  N      240.940     279.511     258.713
  C      241.828     278.634     258.180
  C      242.288     278.571     256.891
  C      241.746     279.507     255.931
  O      241.995     279.508     254.729
  N      243.131     277.501     256.697
  C      243.150     276.891     257.864
  N      242.340     277.519     258.784
  O      245.814     272.278     258.998
  O      246.691     272.478     261.337
  H      239.040     276.453     261.344
  H      247.386     272.872     260.779
  H      240.322     280.956     255.847
  H      243.695     275.984     258.089
  H      242.106     277.833     260.806
  H      240.030     276.474     259.291
  H      238.948     281.740     257.503
  H      240.980     274.433     259.448
  H      239.042     281.100     259.099
  H      242.426     274.954     262.083
  H      242.623     272.703     260.882
  H      243.055     273.568     259.410
  P      238.870     273.161     260.418
  C      239.193     271.832     262.579
  O      238.288     272.193     261.556
  O      239.774     272.183     259.535
  O      237.831     273.823     259.567
  H      239.233     271.781     258.831
  H      238.813     270.951     263.104
  H      239.291     272.656     263.290
  H      240.183     271.595     262.166
  H      244.733     268.979     261.380
  H      246.304     269.743     261.378
  H      245.464     269.470     259.871

 3  4  5  6  7  8  9  10  11  12  23  26  30  31 0
 6-311+G(2d,p)
 ****
 33  35  36  37  38 0
 6-311+G(2d,p)
 ****
 1  2  13  14  15  16  17  18  19  20  21  22  24  25 0
 3-21G
 ****
 27  28  29  32  34  39  40  41  42  43  44  45  46  47  48  49 0
 3-21G
 ****


