%nproc=1
%NoSave
%Mem=1900MB
#P OB98/GEN NMR

erre ene a

0 1
  C      224.577     207.006     -31.732
  O      224.984     207.832     -32.825
  P      226.431     207.589     -33.467
  C      225.741     206.892     -35.861
  O      226.348     207.893     -35.045
  C      225.357     207.468     -37.233
  O      224.228     208.363     -37.071
  C      226.454     208.304     -37.908
  O      227.392     207.639     -38.746
  C      225.620     209.202     -38.819
  O      225.305     208.506     -40.039
  C      224.342     209.442     -38.024
  N      223.366     214.444     -38.495
  C      223.271     213.422     -39.371
  N      223.547     212.116     -39.163
  C      223.957     211.903     -37.901
  C      224.098     212.854     -36.898
  C      223.788     214.180     -37.235
  N      223.896     215.229     -36.352
  N      224.548     212.265     -35.730
  C      224.690     210.988     -36.034
  N      224.328     210.719     -37.326
  O      227.106     206.314     -33.096
  O      227.263     208.855     -32.929
  H      224.991     207.618     -39.779
  H      228.176     208.567     -32.729
  H      222.922     213.682     -40.364
  H      225.044     210.232     -35.352
  H      223.444     209.417     -38.650
  H      226.157     210.115     -39.109
  H      226.989     208.917     -37.169
  H      225.054     206.649     -37.893
  H      224.844     206.510     -35.358
  H      223.694     216.155     -36.684
  H      224.264     215.063     -35.423
  H      226.440     206.059     -35.932
  P      228.884     208.200     -38.944
  C      229.887     205.793     -38.689
  O      229.744     206.959     -39.480
  O      229.463     208.884     -37.751
  O      228.736     209.123     -40.238
  H      228.563     208.640     -41.061
  H      230.314     205.005     -39.313
  H      228.921     205.457     -38.309
  H      230.571     205.994     -37.861
  H      223.595     207.290     -31.417
  H      225.261     207.128     -30.919
  H      224.570     205.982     -32.042

 3  4  5  6  7  8  9  10  11  12  22  25  29  30  31  32 0
 6-311+G(2d,p)
 ****
 33  36  37 0
 6-311+G(2d,p)
 ****
 1  2  13  14  15  16  17  18  19  20  21  23  24  26 0
 3-21G
 ****
 27  28  34  35  38  39  40  41  42  43  44  45  46  47  48 0
 3-21G
 ****


