%nproc=1
%NoSave
%Mem=1900MB
#P OB98/GEN NMR

erre ene a

0 1
  C      -44.894     348.370    -268.388
  O      -44.422     347.994    -269.672
  P      -43.596     349.089    -270.512
  C      -41.398     347.740    -270.158
  O      -42.073     348.987    -270.017
  C      -40.141     347.915    -271.008
  O      -39.334     349.004    -270.512
  C      -39.224     346.704    -271.018
  O      -39.654     345.703    -271.928
  C      -37.923     347.326    -271.496
  O      -37.950     347.486    -272.926
  C      -37.949     348.697    -270.805
  N      -33.819     350.559    -268.562
  C      -34.397     350.904    -269.769
  N      -33.752     351.836    -270.501
  N      -35.511     350.387    -270.208
  C      -36.044     349.463    -269.371
  C      -35.560     349.040    -268.151
  C      -34.318     349.611    -267.682
  O      -33.727     349.309    -266.651
  N      -36.375     348.094    -267.590
  C      -37.353     347.946    -268.461
  N      -37.173     348.717    -269.580
  O      -44.091     350.481    -269.895
  O      -43.802     349.025    -271.988
  H      -37.737     346.610    -273.306
  H      -43.867     351.212    -270.500
  H      -32.950     350.988    -268.268
  H      -38.197     347.278    -268.334
  H      -37.575     349.493    -271.457
  H      -37.047     346.717    -271.261
  H      -32.857     352.227    -270.248
  H      -39.083     346.302    -270.005
  H      -34.125     352.059    -271.418
  H      -40.457     348.168    -272.029
  H      -42.067     347.022    -270.634
  H      -41.135     347.361    -269.164
  P      -39.242     344.187    -271.579
  C      -41.591     343.607    -270.639
  O      -40.209     343.745    -270.381
  O      -37.813     344.356    -270.882
  O      -39.195     343.276    -272.762
  H      -37.282     343.542    -270.996
  H      -42.050     343.053    -269.812
  H      -41.767     343.052    -271.563
  H      -42.062     344.592    -270.703
  H      -45.422     347.550    -267.948
  H      -45.552     349.209    -268.481
  H      -44.064     348.635    -267.766

 3  4  5  6  7  8  9  10  11  12  23  26  30  31 0
 6-311+G(2d,p)
 ****
 33  35  36  37  38 0
 6-311+G(2d,p)
 ****
 1  2  13  14  15  16  17  18  19  20  21  22  24  25 0
 3-21G
 ****
 27  28  29  32  34  39  40  41  42  43  44  45  46  47  48  49 0
 3-21G
 ****


