%nproc=1
%NoSave
%Mem=1900MB
#P OB98/GEN NMR

erre ene a

0 1
  C      107.334     563.374     100.267
  O      106.574     563.242      99.062
  P      106.229     561.773      98.517
  C      108.613     561.079      97.800
  O      107.525     560.842      98.697
  C      109.741     560.038      98.013
  O      109.329     558.728      97.511
  C      111.034     560.427      97.296
  O      112.184     559.967      98.051
  C      110.967     559.606      96.024
  O      112.263     559.441      95.434
  C      110.320     558.317      96.543
  N      110.616     553.988      93.805
  C      111.345     554.450      94.844
  N      111.181     555.592      95.544
  C      110.151     556.294      95.064
  C      109.314     555.970      94.002
  C      109.582     554.752      93.363
  N      108.855     554.309      92.269
  N      108.358     556.946      93.813
  C      108.650     557.872      94.688
  N      109.712     557.536      95.488
  O      105.597     561.708      97.170
  O      105.239     561.200      99.645
  H      112.807     558.920      96.073
  H      104.501     560.714      99.205
  H      112.156     553.801      95.158
  H      108.140     558.841      94.779
  H      111.045     557.684      97.062
  H      110.321     560.123      95.284
  H      111.149     561.500      97.099
  H      109.900     559.918      99.093
  H      108.997     562.084      97.948
  H      109.188     553.479      91.793
  H      108.170     554.920      91.848
  H      108.245     561.049      96.775
  P      113.074     561.137      98.715
  C      115.164     561.560      97.180
  O      113.823     561.878      97.517
  O      113.959     560.642      99.827
  O      111.958     562.175      99.217
  H      111.302     562.414      98.528
  H      115.417     562.079      96.244
  H      115.261     560.479      97.030
  H      115.827     561.889      97.984
  H      107.474     564.411     100.488
  H      108.287     562.904     100.141
  H      106.809     562.905     101.073

 3  4  5  6  7  8  9  10  11  12  22  25  29  30  31  32 0
 6-311+G(2d,p)
 ****
 33  36  37 0
 6-311+G(2d,p)
 ****
 1  2  13  14  15  16  17  18  19  20  21  23  24  26 0
 3-21G
 ****
 27  28  34  35  38  39  40  41  42  43  44  45  46  47  48 0
 3-21G
 ****


