%nproc=1
%NoSave
%Mem=1900MB
#P OB98/GEN NMR

erre ene a

0 1
  C      653.337     546.890     312.298
  O      652.209     546.095     311.973
  H      654.033     546.860     311.459
  H      653.841     546.485     313.180
  H      653.043     547.927     312.475
  P      650.977     546.048     313.009
  C      650.530     543.855     311.745
  O      649.949     544.944     312.442
  C      649.452     543.043     311.036
  O      648.617     542.400     312.032
  C      648.526     543.876     310.136
  O      648.223     543.108     308.966
  C      647.285     544.074     310.968
  O      646.121     544.274     310.172
  C      647.243     542.771     311.771
  N      642.837     544.211     313.772
  C      643.215     544.089     312.458
  N      642.292     544.438     311.521
  N      644.389     543.676     312.078
  C      645.211     543.359     313.110
  C      644.946     543.433     314.458
  C      643.648     543.908     314.867
  O      643.252     544.045     316.019
  N      646.044     543.052     315.202
  C      646.955     542.742     314.296
  N      646.514     542.924     313.019
  O      650.355     547.369     313.323
  O      651.595     545.352     314.310
  H      645.343     544.088     310.741
  H      651.815     546.021     314.983
  H      641.911     544.544     314.012
  H      647.969     542.399     314.526
  H      646.765     541.943     311.224
  H      647.402     544.937     311.630
  H      641.358     544.740     311.744
  H      648.983     544.833     309.834
  H      642.551     544.326     310.544
  H      649.935     542.235     310.460
  H      651.054     543.217     312.471
  H      651.256     544.230     311.007
  P      648.161     543.842     307.544
  C      645.970     542.666     306.861
  O      647.333     542.901     306.530
  O      649.470     544.346     307.021
  O      647.136     545.053     307.806
  H      647.377     545.796     307.215
  H      645.527     542.033     306.121
  H      645.445     543.598     306.893
  H      645.912     542.191     307.818

 6  7  8  9  10  11  12  13  14  15  26  29  33  34 0
 6-311+G(2d,p)
 ****
 36  38  39  40  41 0
 6-311+G(2d,p)
 ****
 1  2  3  4  5  16  17  18  19  20  21  22  23  24  25 0
 3-21G
 ****
 27  28  30  31  32  35  37  42  43  44  45  46  47 0
 3-21G
 ****
 48  49 0
 3-21G
 ****


