%nproc=1
%NoSave
%Mem=1900MB
#P OB98/GEN NMR

erre ene a

0 1
  C      280.312    -153.126     253.212
  O      280.402    -154.526     252.935
  P      280.881    -154.917     251.450
  C      278.479    -154.986     250.474
  O      279.765    -154.386     250.417
  C      277.850    -155.102     249.085
  O      276.566    -155.786     249.142
  C      277.614    -153.748     248.398
  O      277.820    -153.947     246.993
  C      276.130    -153.507     248.644
  O      275.598    -152.536     247.750
  C      275.601    -154.931     248.472
  N      270.845    -153.249     248.395
  C      271.973    -152.747     247.777
  N      271.800    -151.670     246.979
  N      273.163    -153.259     247.924
  C      273.179    -154.364     248.722
  C      272.125    -154.961     249.372
  C      270.811    -154.359     249.226
  O      269.775    -154.762     249.746
  N      272.533    -156.083     250.064
  C      273.842    -156.108     249.875
  N      274.270    -155.131     249.026
  O      280.709    -156.508     251.417
  O      282.285    -154.502     251.141
  H      274.638    -152.462     247.941
  H      281.576    -156.943     251.547
  H      269.947    -152.803     248.256
  H      274.515    -156.835     250.303
  H      275.546    -155.231     247.422
  H      275.971    -153.152     249.670
  H      270.900    -151.253     246.778
  H      278.240    -152.931     248.769
  H      272.604    -151.311     246.487
  H      278.514    -155.716     248.457
  H      277.816    -154.389     251.110
  H      278.562    -155.968     250.959
  P      279.012    -153.133     246.296
  C      277.731    -150.964     245.662
  O      278.702    -151.575     246.494
  O      278.737    -153.365     244.727
  O      280.382    -153.583     246.672
  H      279.591    -153.484     244.264
  H      277.300    -150.107     246.188
  H      276.922    -151.665     245.409
  H      278.206    -150.621     244.737
  H      279.987    -152.982     254.221
  H      279.610    -152.674     252.543
  H      281.273    -152.674     253.079

 3  4  5  6  7  8  9  10  11  12  23  26  30  31 0
 6-311+G(2d,p)
 ****
 33  35  36  37  38 0
 6-311+G(2d,p)
 ****
 1  2  13  14  15  16  17  18  19  20  21  22  24  25 0
 3-21G
 ****
 27  28  29  32  34  39  40  41  42  43  44  45  46  47  48  49 0
 3-21G
 ****


