%nproc=1
%NoSave
%Mem=1900MB
#P OB98/GEN NMR

erre ene a

0 1
  C      123.518    -104.564    -680.157
  O      123.766    -104.253    -681.517
  P      122.681    -104.722    -682.604
  C      124.233    -104.043    -684.585
  O      123.474    -105.064    -683.955
  C      124.827    -104.573    -685.895
  O      125.683    -105.711    -685.639
  C      123.779    -105.060    -686.888
  O      123.165    -103.975    -687.570
  C      124.611    -105.957    -687.795
  O      125.283    -105.195    -688.802
  C      125.617    -106.572    -686.797
  N      125.299    -107.942    -686.438
  C      125.904    -108.935    -687.216
  O      126.649    -108.681    -688.163
  N      125.598    -110.229    -686.886
  C      124.706    -110.621    -685.927
  O      124.422    -111.792    -685.712
  C      124.071    -109.534    -685.155
  C      124.385    -108.262    -685.448
  O      121.881    -103.377    -682.956
  O      121.770    -105.809    -682.133
  H      126.001    -105.759    -689.157
  H      120.940    -103.590    -683.122
  H      126.036    -110.958    -687.417
  H      123.367    -109.813    -684.374
  H      123.915    -107.451    -684.906
  H      126.628    -106.564    -687.238
  H      123.992    -106.700    -688.311
  H      123.024    -105.669    -686.365
  H      125.445    -103.780    -686.344
  H      125.041    -103.725    -683.913
  H      123.589    -103.179    -684.777
  P      121.875    -104.317    -688.472
  C      123.210    -103.042    -690.319
  O      122.375    -104.130    -689.984
  O      120.959    -103.040    -688.170
  O      121.257    -105.628    -688.128
  H      121.487    -102.233    -688.015
  H      123.920    -102.808    -689.524
  H      122.609    -102.168    -690.543
  H      123.781    -103.313    -691.220
  H      124.320    -104.192    -679.554
  H      123.447    -105.625    -680.041
  H      122.600    -104.110    -679.849

 3  4  5  6  7  8  9  10  11  12  13  23  28  29  30  31  32 0
 6-311+G(2d,p)
 ****
 33  34 0
 6-311+G(2d,p)
 ****
 1  2  14  15  16  17  18  19  20  21  22  24  25  26 0
 3-21G
 ****
 27  35  36  37  38  39  40  41  42  43  44  45 0
 3-21G
 ****


