%nproc=1
%NoSave
%Mem=1900MB
#P OB98/GEN NMR

erre ene a

0 1
  C     -265.172     446.022     145.087
  O     -263.995     445.466     144.493
  P     -263.251     446.137     143.240
  C     -261.279     444.494     143.524
  O     -262.202     445.091     142.622
  C     -260.759     443.151     143.004
  O     -261.713     442.100     143.265
  C     -260.510     443.105     141.500
  O     -259.314     443.786     141.158
  C     -260.482     441.601     141.253
  O     -259.196     441.045     141.564
  C     -261.552     441.097     142.240
  N     -262.820     440.793     141.593
  C     -262.750     440.157     140.349
  O     -261.658     439.940     139.819
  N     -263.921     439.817     139.714
  C     -265.059     440.149     140.245
  N     -266.183     439.776     139.578
  C     -265.174     440.889     141.517
  C     -264.027     441.174     142.127
  O     -262.664     447.481     143.530
  O     -264.375     446.248     142.104
  H     -259.097     441.104     142.534
  H     -264.186     447.030     141.548
  H     -266.141     441.170     141.906
  H     -264.021     441.713     143.066
  H     -261.197     440.194     142.760
  H     -260.703     441.344     140.213
  H     -261.367     443.545     140.971
  H     -259.838     442.914     143.548
  H     -266.072     439.263     138.713
  H     -261.793     444.332     144.484
  H     -267.122     439.978     139.903
  H     -260.447     445.185     143.691
  P     -259.394     445.266     140.548
  C     -257.345     445.723     142.031
  O     -257.966     445.952     140.775
  O     -260.564     446.083     140.976
  O     -259.413     445.022     138.965
  H     -259.936     445.734     138.542
  H     -256.266     445.883     141.924
  H     -257.527     444.703     142.379
  H     -257.735     446.430     142.765
  H     -265.486     445.404     145.903
  H     -265.952     446.070     144.356
  H     -264.959     447.007     145.447

 3  4  5  6  7  8  9  10  11  12  13  23  27  28  29  30  32 0
 6-311+G(2d,p)
 ****
 34  35 0
 6-311+G(2d,p)
 ****
 1  2  14  15  16  17  18  19  20  21  22  24  25  26 0
 3-21G
 ****
 31  33  36  37  38  39  40  41  42  43  44  45  46 0
 3-21G
 ****


