%nproc=1
%NoSave
%Mem=1900MB
#P OB98/GEN NMR

erre ene a

0 1
  C       -4.853    -225.173    -393.585
  O       -5.869    -226.062    -394.065
  P       -6.842    -226.881    -393.085
  C       -8.725    -225.119    -392.985
  O       -7.743    -225.851    -392.255
  C      -10.106    -225.780    -392.889
  O      -10.576    -225.784    -391.530
  C      -11.201    -225.085    -393.690
  O      -11.081    -225.371    -395.074
  C      -12.456    -225.657    -393.033
  O      -12.777    -226.952    -393.563
  C      -12.018    -225.758    -391.557
  N      -12.548    -224.669    -390.741
  C      -13.879    -224.799    -390.324
  O      -14.560    -225.758    -390.688
  N      -14.415    -223.814    -389.519
  C      -13.706    -222.769    -389.224
  N      -14.285    -221.827    -388.418
  C      -12.331    -222.551    -389.718
  C      -11.824    -223.533    -390.465
  O       -6.141    -227.898    -392.244
  O       -7.898    -227.599    -394.059
  H      -13.008    -226.823    -394.505
  H       -8.186    -228.442    -393.656
  H      -11.787    -221.647    -389.477
  H      -10.815    -223.468    -390.860
  H      -12.348    -226.711    -391.123
  H      -13.336    -225.019    -393.187
  H      -11.161    -224.004    -393.526
  H      -10.002    -226.828    -393.209
  H      -15.221    -222.007    -388.090
  H       -8.412    -225.078    -394.035
  H      -13.818    -220.982    -388.130
  H       -8.769    -224.094    -392.594
  P      -11.533    -224.279    -396.162
  C       -9.246    -223.323    -396.839
  O      -10.456    -223.093    -396.135
  O      -12.963    -223.842    -396.071
  O      -11.242    -224.994    -397.562
  H      -11.894    -224.676    -398.220
  H       -8.798    -222.360    -397.087
  H       -9.432    -223.885    -397.760
  H       -8.565    -223.883    -396.199
  H       -4.334    -224.743    -394.416
  H       -4.162    -225.717    -392.975
  H       -5.304    -224.395    -393.005

 3  4  5  6  7  8  9  10  11  12  13  23  27  28  29  30  32 0
 6-311+G(2d,p)
 ****
 34  35 0
 6-311+G(2d,p)
 ****
 1  2  14  15  16  17  18  19  20  21  22  24  25  26 0
 3-21G
 ****
 31  33  36  37  38  39  40  41  42  43  44  45  46 0
 3-21G
 ****


