%nproc=1
%NoSave
%Mem=1900MB
#P OB98/GEN NMR

erre ene a

0 1
  C     -617.184    -743.519    -212.055
  O     -616.895    -742.177    -211.734
  H     -617.145    -744.113    -211.141
  H     -616.440    -743.905    -212.756
  H     -618.186    -743.614    -212.487
  P     -617.165    -741.038    -212.829
  C     -614.603    -740.745    -212.923
  O     -615.800    -740.883    -213.668
  C     -613.378    -740.854    -213.835
  O     -613.313    -739.673    -214.684
  C     -612.040    -740.952    -213.077
  O     -611.152    -741.734    -213.876
  C     -611.598    -739.496    -213.057
  O     -610.216    -739.386    -212.772
  C     -612.041    -739.043    -214.449
  N     -612.106    -737.586    -214.569
  C     -610.911    -736.927    -214.836
  O     -609.828    -737.507    -214.942
  N     -610.979    -735.567    -214.931
  C     -612.103    -734.815    -214.745
  O     -612.099    -733.591    -214.810
  C     -613.331    -735.559    -214.417
  C     -613.279    -736.899    -214.359
  O     -617.727    -739.761    -212.311
  O     -618.148    -741.737    -213.887
  H     -610.045    -739.551    -211.820
  H     -618.732    -741.070    -214.294
  H     -610.127    -735.074    -215.138
  H     -614.230    -734.987    -214.245
  H     -614.159    -737.472    -214.118
  H     -611.339    -739.410    -215.218
  H     -612.138    -738.938    -212.288
  H     -612.139    -741.384    -212.081
  H     -613.518    -741.713    -214.506
  H     -614.575    -741.543    -212.169
  H     -614.602    -739.769    -212.413
  P     -610.932    -743.301    -213.629
  C     -608.517    -743.604    -212.780
  O     -609.890    -743.491    -212.420
  O     -610.593    -744.079    -214.863
  O     -612.324    -743.809    -213.008
  H     -612.459    -744.756    -213.225
  H     -607.926    -743.726    -211.897
  H     -608.210    -742.718    -213.296
  H     -608.384    -744.453    -213.418

 6  7  8  9  10  11  12  13  14  15  16  26  31  32  33  34  35 0
 6-311+G(2d,p)
 ****
 36  37 0
 6-311+G(2d,p)
 ****
 1  2  3  4  5  17  18  19  20  21  22  23  24  25 0
 3-21G
 ****
 27  28  29  30  38  39  40  41  42  43  44  45 0
 3-21G
 ****


