%nproc=1
%NoSave
%Mem=1900MB
#P OB98/GEN NMR

erre ene a

0 1
  C       31.413    -171.499     214.358
  O       32.448    -172.444     214.183
  P       33.132    -173.229     215.393
  C       33.916    -172.599     217.790
  O       33.646    -172.146     216.469
  C       33.963    -171.458     218.819
  O       32.700    -170.758     218.817
  C       34.141    -172.026     220.232
  O       35.431    -172.354     220.707
  C       33.341    -171.095     221.135
  O       34.159    -170.116     221.777
  C       32.360    -170.419     220.168
  N       28.072    -169.232     222.606
  C       29.201    -168.459     222.401
  N       29.256    -167.301     223.097
  N       30.182    -168.806     221.611
  C       30.026    -170.037     221.061
  C       28.949    -170.885     221.181
  C       27.852    -170.472     222.027
  O       26.875    -171.168     222.302
  N       29.171    -172.081     220.543
  C       30.393    -171.972     220.071
  N       30.970    -170.763     220.396
  O       34.034    -174.365     215.035
  O       31.840    -173.856     216.134
  H       33.568    -169.459     222.195
  H       32.103    -174.723     216.501
  H       27.382    -168.952     223.294
  H       30.923    -172.743     219.523
  H       32.434    -169.325     220.246
  H       32.846    -171.659     221.933
  H       28.592    -167.074     223.821
  H       33.597    -172.978     220.259
  H       30.135    -166.796     223.101
  H       34.714    -170.713     218.545
  H       34.870    -173.135     217.766
  H       33.151    -173.322     218.093
  P       35.795    -172.877     222.175
  C       35.581    -172.031     224.580
  O       35.578    -171.672     223.209
  O       37.389    -173.044     222.150
  O       35.142    -174.165     222.564
  H       37.667    -173.668     222.847
  H       35.135    -171.217     225.160
  H       36.611    -172.181     224.917
  H       35.005    -172.947     224.747
  H       31.120    -171.110     213.405
  H       31.761    -170.699     214.978
  H       30.574    -171.972     214.824

 3  4  5  6  7  8  9  10  11  12  23  26  30  31 0
 6-311+G(2d,p)
 ****
 33  35  36  37  38 0
 6-311+G(2d,p)
 ****
 1  2  13  14  15  16  17  18  19  20  21  22  24  25 0
 3-21G
 ****
 27  28  29  32  34  39  40  41  42  43  44  45  46  47  48  49 0
 3-21G
 ****


