%nproc=1
%NoSave
%Mem=1900MB
#P OB98/GEN NMR

erre ene a

0 1
  C      777.560    -891.790     294.873
  O      778.273    -892.840     294.212
  P      777.542    -893.690     293.086
  C      778.217    -895.170     291.085
  O      778.666    -894.300     292.118
  C      779.226    -895.180     289.912
  O      779.141    -893.900     289.197
  C      780.661    -895.330     290.321
  O      780.941    -896.690     290.627
  C      781.372    -894.790     289.066
  O      781.428    -895.810     288.051
  C      780.433    -893.650     288.650
  N      783.943    -890.080     287.701
  C      783.784    -891.330     287.238
  N      782.844    -892.230     287.579
  C      782.013    -891.740     288.503
  C      782.062    -890.490     289.091
  C      783.059    -889.620     288.620
  N      783.172    -888.290     289.040
  N      781.032    -890.350     290.025
  C      780.411    -891.480     289.988
  N      780.916    -892.340     289.060
  O      776.396    -893.020     292.391
  O      777.010    -895.000     293.887
  H      782.086    -896.470     288.309
  H      776.052    -895.060     293.825
  H      784.508    -891.650     286.495
  H      779.558    -891.770     290.611
  H      780.289    -893.630     287.539
  H      782.379    -894.480     289.280
  H      780.893    -894.660     291.174
  H      778.889    -895.960     289.190
  H      777.224    -894.840     290.739
  H      783.856    -887.710     288.545
  H      782.382    -887.870     289.511
  H      778.130    -896.190     291.495
  P      782.334    -897.080     291.315
  C      783.248    -899.280     292.250
  O      782.112    -898.460     292.093
  O      782.963    -896.000     292.137
  O      783.272    -897.500     290.097
  H      784.184    -897.280     290.274
  H      783.444    -899.810     291.301
  H      783.035    -900.000     293.035
  H      784.130    -898.690     292.525
  H      778.198    -891.326     295.596
  H      776.701    -892.197     295.364
  H      777.248    -891.063     294.153

 3  4  5  6  7  8  9  10  11  12  22  25  29  30  31  32 0
 6-311+G(2d,p)
 ****
 33  36  37 0
 6-311+G(2d,p)
 ****
 1  2  13  14  15  16  17  18  19  20  21  23  24  26 0
 3-21G
 ****
 27  28  34  35  38  39  40  41  42  43  44  45  46  47  48 0
 3-21G
 ****


