%nproc=1
%NoSave
%Mem=1900MB
#P OB98/GEN NMR

erre ene a

0 1
  C      444.029    1463.401    -545.016
  O      445.367    1463.091    -544.621
  P      446.636    1463.140    -545.580
  C      447.839    1465.020    -544.216
  O      447.296    1464.590    -545.451
  C      448.437    1466.433    -544.282
  O      447.396    1467.411    -544.558
  C      449.055    1466.839    -542.930
  O      450.363    1466.413    -542.603
  C      448.834    1468.337    -542.821
  O      449.955    1469.088    -543.292
  C      447.622    1468.577    -543.750
  N      444.606    1472.294    -541.908
  C      445.827    1472.391    -542.566
  N      446.344    1473.637    -542.719
  N      446.480    1471.363    -543.028
  C      445.927    1470.169    -542.719
  C      444.732    1469.938    -542.071
  C      443.966    1471.081    -541.613
  O      442.891    1471.050    -541.047
  N      444.491    1468.616    -541.928
  C      445.525    1468.011    -542.488
  N      446.428    1468.937    -542.992
  O      446.419    1462.598    -546.955
  O      447.691    1462.172    -544.836
  H      450.744    1468.799    -542.824
  H      448.216    1461.746    -545.540
  H      444.134    1473.116    -541.610
  H      445.675    1466.946    -542.567
  H      447.814    1469.398    -544.445
  H      448.670    1468.620    -541.784
  H      445.924    1474.447    -542.295
  H      448.403    1466.391    -542.161
  H      447.309    1473.696    -543.009
  H      449.141    1466.533    -545.114
  H      448.617    1464.294    -543.935
  H      447.073    1464.980    -543.431
  P      450.785    1464.980    -542.023
  C      451.946    1464.133    -544.165
  O      450.877    1463.958    -543.247
  O      449.492    1464.479    -541.227
  O      452.000    1464.984    -541.141
  H      449.728    1463.745    -540.636
  H      451.726    1463.596    -545.098
  H      452.860    1463.715    -543.716
  H      452.111    1465.209    -544.382
  H      443.374    1463.287    -544.177
  H      443.725    1462.737    -545.798
  H      443.986    1464.411    -545.368

 3  4  5  6  7  8  9  10  11  12  23  26  30  31 0
 6-311+G(2d,p)
 ****
 33  35  36  37  38 0
 6-311+G(2d,p)
 ****
 1  2  13  14  15  16  17  18  19  20  21  22  24  25 0
 3-21G
 ****
 27  28  29  32  34  39  40  41  42  43  44  45  46  47  48  49 0
 3-21G
 ****


