%nproc=1
%NoSave
%Mem=1900MB
#P OB98/GEN NMR

erre ene a

0 1
  C     -255.868      48.641    -151.719
  O     -255.663      49.105    -153.039
  H     -255.924      49.508    -151.049
  H     -255.034      48.013    -151.403
  H     -256.804      48.080    -151.645
  P     -255.677      48.043    -154.243
  C     -258.249      47.973    -154.414
  O     -257.062      47.243    -154.139
  C     -259.176      47.142    -155.300
  O     -259.170      45.759    -154.876
  C     -260.636      47.583    -155.252
  O     -260.830      48.768    -156.001
  C     -261.324      46.342    -155.807
  O     -261.228      46.295    -157.237
  C     -260.477      45.210    -155.169
  N     -261.097      44.650    -153.959
  C     -262.325      44.023    -154.140
  O     -262.889      43.932    -155.235
  N     -262.918      43.539    -153.005
  C     -262.453      43.699    -151.728
  O     -263.118      43.451    -150.726
  C     -261.115      44.305    -151.610
  C     -260.516      44.763    -152.716
  O     -254.458      47.190    -154.370
  O     -255.893      48.954    -155.546
  H     -255.035      49.082    -155.995
  H     -260.305      46.057    -157.446
  H     -263.834      43.124    -153.116
  H     -260.681      44.392    -150.620
  H     -259.540      45.237    -152.648
  H     -260.327      44.395    -155.887
  H     -262.386      46.308    -155.555
  H     -260.950      47.727    -154.209
  H     -258.796      47.181    -156.330
  H     -257.971      48.895    -154.940
  H     -258.742      48.232    -153.470
  P     -261.999      49.799    -155.638
  C     -260.518      50.838    -153.818
  O     -261.786      50.267    -154.119
  O     -263.379      49.330    -155.959
  O     -261.633      51.117    -156.477
  H     -262.411      51.384    -157.007
  H     -260.487      51.112    -152.784
  H     -260.366      51.708    -154.422
  H     -259.748      50.123    -154.021

 6  7  8  9  10  11  12  13  14  15  16  27  31  32  33  34  35 0
 6-311+G(2d,p)
 ****
 36  37 0
 6-311+G(2d,p)
 ****
 1  2  3  4  5  17  18  19  20  21  22  23  24  25 0
 3-21G
 ****
 26  28  29  30  38  39  40  41  42  43  44  45 0
 3-21G
 ****


