%nproc=1
%NoSave
%Mem=1900MB
#P OB98/GEN NMR

erre ene a

0 1
  C      -59.482     -24.529      39.663
  O      -60.520     -23.588      39.841
  H      -58.975     -24.320      38.717
  H      -59.895     -25.541      39.624
  H      -58.756     -24.455      40.477
  P      -61.366     -23.696      41.200
  C      -63.336     -24.753      39.872
  O      -62.438     -24.867      40.970
  C      -64.191     -26.013      39.771
  O      -63.390     -27.097      39.247
  C      -64.731     -26.511      41.106
  O      -65.866     -25.775      41.527
  C      -65.039     -27.966      40.776
  O      -66.318     -28.103      40.143
  C      -63.924     -28.326      39.787
  N      -62.686     -32.914      41.629
  C      -63.794     -32.460      41.004
  N      -64.039     -31.221      40.525
  C      -62.984     -30.418      40.738
  C      -61.792     -30.736      41.365
  C      -61.656     -32.056      41.823
  N      -60.543     -32.509      42.491
  N      -60.970     -29.629      41.435
  C      -61.649     -28.662      40.851
  N      -62.867     -29.095      40.411
  O      -62.252     -22.361      41.177
  O      -60.556     -23.809      42.448
  H      -66.329     -28.986      39.726
  H      -61.803     -21.663      41.690
  H      -64.592     -33.187      40.876
  H      -61.307     -27.641      40.733
  H      -64.296     -28.915      38.940
  H      -65.055     -28.582      41.676
  H      -63.944     -26.481      41.869
  H      -65.010     -25.823      39.066
  H      -62.761     -24.632      38.946
  H      -63.966     -23.870      40.019
  H      -60.524     -33.464      42.812
  H      -59.816     -31.850      42.735
  P      -65.838     -25.087      42.973
  C      -67.684     -26.647      43.932
  O      -66.351     -26.172      44.038
  O      -67.036     -24.030      42.899
  O      -64.542     -24.439      43.329
  H      -66.690     -23.134      42.730
  H      -67.872     -27.359      44.708
  H      -67.822     -27.113      42.979
  H      -68.364     -25.826      44.029

 6  7  8  9  10  11  12  13  14  15  25  28  32  33  34  35 0
 6-311+G(2d,p)
 ****
 36  37  40 0
 6-311+G(2d,p)
 ****
 1  2  3  4  5  16  17  18  19  20  21  22  23  24 0
 3-21G
 ****
 26  27  29  30  31  38  39 41  42  43  44  45  46  47  48 0
 3-21G
 ****


