%nproc=1
%NoSave
%Mem=1900MB
#P OB98/GEN NMR

erre ene a

0 1
  C     1101.029    -182.275    -244.333
  O     1100.045    -181.309    -244.010
  H     1100.908    -182.558    -245.378
  H     1100.904    -183.163    -243.713
  H     1102.031    -181.863    -244.190
  P     1100.113    -180.668    -242.540
  C     1100.756    -178.296    -243.397
  O     1101.133    -179.434    -242.635
  C     1101.663    -177.109    -243.043
  O     1101.157    -176.487    -241.840
  C     1103.115    -177.526    -242.780
  O     1103.984    -176.507    -243.275
  C     1103.198    -177.568    -241.264
  O     1104.508    -177.409    -240.750
  C     1102.252    -176.418    -240.888
  N     1101.750    -176.526    -239.518
  C     1102.249    -175.629    -238.581
  O     1103.026    -174.711    -238.840
  N     1101.837    -175.825    -237.291
  C     1101.000    -176.813    -236.856
  O     1100.672    -176.942    -235.686
  C     1100.504    -177.735    -237.887
  C     1100.895    -177.552    -239.149
  O     1100.934    -181.758    -241.698
  O     1098.798    -180.340    -241.917
  H     1100.330    -182.405    -241.296
  H     1105.105    -177.982    -241.275
  H     1102.188    -175.181    -236.604
  H     1099.854    -178.531    -237.574
  H     1100.564    -178.220    -239.939
  H     1102.744    -175.455    -241.026
  H     1102.802    -178.523    -240.896
  H     1103.380    -178.484    -243.227
  H     1101.599    -176.373    -243.844
  H     1099.714    -178.044    -243.165
  H     1100.842    -178.535    -244.464
  P     1104.442    -176.611    -244.822
  C     1103.641    -174.175    -245.364
  O     1103.512    -175.569    -245.620
  O     1103.866    -178.042    -245.213
  O     1105.911    -176.423    -245.001
  H     1103.013    -178.256    -244.802
  H     1102.951    -173.634    -245.978
  H     1104.639    -173.862    -245.588
  H     1103.429    -173.981    -244.333

 6  7  8  9  10  11  12  13  14  15  16  27  31  32  33  34  35 0
 6-311+G(2d,p)
 ****
 36  37 0
 6-311+G(2d,p)
 ****
 1  2  3  4  5  17  18  19  20  21  22  23  24  25 0
 3-21G
 ****
 26  28  29  30  38  39  40  41  42  43  44  45 0
 3-21G
 ****


