%nproc=1
%NoSave
%Mem=1900MB
#P OB98/GEN NMR

erre ene a

0 1
  C      414.623    -598.647    -590.620
  O      415.865    -599.318    -590.515
  H      414.607    -598.086    -591.558
  H      414.490    -597.943    -589.795
  H      413.805    -599.370    -590.630
  P      416.199    -600.089    -589.152
  C      414.908    -602.286    -589.610
  O      416.178    -601.649    -589.518
  C      414.987    -603.484    -590.548
  O      415.033    -603.048    -591.920
  C      416.242    -604.326    -590.339
  O      416.126    -605.129    -589.186
  C      416.302    -605.082    -591.654
  O      415.394    -606.191    -591.659
  C      415.842    -603.994    -592.653
  N      416.965    -603.328    -593.316
  C      417.456    -603.952    -594.463
  O      416.952    -604.993    -594.877
  N      418.530    -603.381    -595.107
  C      419.050    -602.284    -594.657
  N      420.111    -601.772    -595.336
  C      418.553    -601.589    -593.453
  C      417.520    -602.161    -592.832
  O      415.375    -599.727    -587.952
  O      417.757    -599.790    -588.919
  H      415.371    -606.509    -592.585
  H      417.872    -598.975    -588.399
  H      419.011    -600.672    -593.110
  H      417.092    -601.713    -591.944
  H      415.198    -604.427    -593.431
  H      417.298    -605.465    -591.846
  H      417.125    -603.682    -590.275
  H      414.083    -604.089    -590.413
  H      420.424    -602.284    -596.155
  H      414.201    -601.546    -590.002
  H      420.538    -600.881    -595.127
  H      414.561    -602.604    -588.615
  P      417.330    -605.219    -588.125
  C      415.802    -604.188    -586.314
  O      416.626    -605.301    -586.681
  O      418.381    -604.178    -588.275
  O      417.874    -606.718    -588.335
  H      418.394    -606.794    -589.177
  H      415.391    -604.355    -585.340
  H      415.008    -604.083    -587.023
  H      416.392    -603.295    -586.304

 6  7  8  9  10  11  12  13  14  15  16  26  30  31  32  33  35 0
 6-311+G(2d,p)
 ****
 37  38 0
 6-311+G(2d,p)
 ****
 1  2  3  4  5  17  18  19  20  21  22  23  24  25 0
 3-21G
 ****
 27  28  29  34  36  39  40  41  42  43  44  45  46 0
 3-21G
 ****


