%nproc=1
%NoSave
%Mem=1900MB
#P OB98/GEN NMR

erre ene a

0 1
  C      452.531    -146.577    -121.467
  O      452.758    -145.690    -120.385
  P      451.805    -144.402    -120.266
  C      453.714    -142.774    -121.065
  O      452.412    -143.315    -121.272
  C      453.746    -141.304    -121.489
  O      453.354    -141.183    -122.876
  C      452.783    -140.396    -120.725
  O      453.279    -140.079    -119.431
  C      452.676    -139.213    -121.676
  O      453.813    -138.342    -121.527
  C      452.710    -139.907    -123.053
  N      451.390    -140.057    -123.666
  C      450.931    -138.978    -124.412
  O      451.576    -137.933    -124.572
  N      449.678    -139.120    -124.958
  C      448.839    -140.184    -124.784
  O      447.716    -140.238    -125.264
  C      449.369    -141.277    -123.956
  C      450.594    -141.169    -123.445
  O      452.203    -143.878    -118.803
  O      450.355    -144.725    -120.454
  H      453.113    -144.135    -118.562
  H      453.514    -137.453    -121.814
  H      449.331    -138.358    -125.529
  H      448.726    -142.141    -123.790
  H      451.001    -141.956    -122.821
  H      453.347    -139.335    -123.747
  H      451.772    -138.607    -121.500
  H      451.809    -140.887    -120.633
  H      454.781    -140.938    -121.393
  H      454.438    -143.341    -121.654
  H      453.977    -142.870    -120.006
  P      452.193    -140.006    -118.248
  C      452.272    -137.403    -118.479
  O      451.491    -138.569    -118.358
  O      453.146    -139.879    -116.962
  O      451.268    -141.175    -118.210
  H      453.893    -139.270    -117.105
  H      451.650    -136.605    -118.897
  H      453.132    -137.558    -119.135
  H      452.621    -137.097    -117.493
  H      453.234    -147.383    -121.421
  H      452.652    -146.051    -122.391
  H      451.536    -146.967    -121.406

 3  4  5  6  7  8  9  10  11  12  13  24  28  29  30  31  32 0
 6-311+G(2d,p)
 ****
 33  34 0
 6-311+G(2d,p)
 ****
 1  2  14  15  16  17  18  19  20  21  22  23  25  26  27 0
 3-21G
 ****
 35  36  37  38  39  40  41  42  43  44  45 0
 3-21G
 ****


