%nproc=1
%NoSave
%Mem=1900MB
#P OB98/GEN NMR

erre ene a

0 1
  C       -7.610     -19.726     -28.963
  O       -7.426     -20.812     -28.074
  P       -6.661     -20.525     -26.695
  C       -7.958     -22.394     -25.421
  O       -6.702     -21.878     -25.839
  C       -7.879     -23.918     -25.310
  O       -6.778     -24.303     -24.459
  C       -9.117     -24.549     -24.689
  O      -10.175     -24.646     -25.627
  C       -8.580     -25.899     -24.237
  O       -8.575     -26.841     -25.321
  C       -7.140     -25.544     -23.816
  N       -6.980     -25.472     -22.368
  C       -6.512     -26.627     -21.748
  O       -6.265     -27.663     -22.366
  N       -6.376     -26.564     -20.389
  C       -6.707     -25.503     -19.598
  O       -6.615     -25.527     -18.376
  C       -7.225     -24.320     -20.304
  C       -7.342     -24.360     -21.633
  O       -7.649     -19.545     -25.906
  O       -5.301     -19.934     -26.852
  H       -9.511     -27.039     -25.521
  H       -7.132     -18.898     -25.388
  H       -6.014     -27.381     -19.925
  H       -7.498     -23.460     -19.708
  H       -7.734     -23.504     -22.170
  H       -6.439     -26.296     -24.200
  H       -9.184     -26.336     -23.436
  H       -9.428     -23.974     -23.808
  H       -7.698     -24.329     -26.311
  H       -8.724     -22.116     -26.150
  H       -8.224     -21.952     -24.457
  P      -11.590     -25.170     -25.076
  C      -12.723     -23.859     -27.031
  O      -12.585     -25.075     -26.328
  O      -12.005     -23.957     -24.118
  O      -11.497     -26.497     -24.401
  H      -11.679     -23.102     -24.447
  H      -11.776     -23.316     -27.081
  H      -13.474     -23.238     -26.537
  H      -13.059     -24.078     -28.048
  H       -8.131     -20.063     -29.835
  H       -6.657     -19.333     -29.248
  H       -8.181     -18.962     -28.479

 3  4  5  6  7  8  9  10  11  12  13  23  28  29  30  31  32 0
 6-311+G(2d,p)
 ****
 33  34 0
 6-311+G(2d,p)
 ****
 1  2  14  15  16  17  18  19  20  21  22  24  25  26 0
 3-21G
 ****
 27  35  36  37  38  39  40  41  42  43  44  45 0
 3-21G
 ****


