%nproc=1
%NoSave
%Mem=1900MB
#P OB98/GEN NMR

erre ene a

0 1
  C      340.293    -894.640    -897.070
  O      339.504    -895.750    -896.610
  P      339.666    -896.270    -895.090
  C      337.337    -896.400    -893.870
  O      338.509    -895.630    -894.200
  C      336.102    -895.810    -894.520
  O      336.178    -895.870    -895.960
  C      334.797    -896.470    -894.150
  O      334.369    -896.120    -892.850
  C      333.882    -895.980    -895.250
  O      333.344    -894.670    -894.940
  C      334.819    -895.920    -896.460
  N      334.619    -897.030    -897.400
  C      333.367    -897.120    -897.980
  O      332.422    -896.370    -897.690
  N      333.203    -898.160    -898.880
  C      334.119    -899.090    -899.200
  O      333.927    -900.000    -900.000
  C      335.427    -898.970    -898.480
  C      335.611    -897.980    -897.630
  O      340.971    -895.460    -894.620
  O      339.880    -897.750    -894.950
  H      332.907    -894.760    -894.060
  H      341.421    -895.970    -893.910
  H      332.299    -898.220    -899.340
  H      336.194    -899.720    -898.680
  H      336.559    -897.880    -897.110
  H      334.678    -894.990    -897.010
  H      333.014    -896.640    -895.400
  H      334.915    -897.560    -894.250
  H      336.081    -894.710    -894.250
  H      337.229    -896.410    -892.800
  H      337.511    -897.430    -894.220
  P      334.688    -897.180    -891.640
  C      335.243    -895.510    -889.700
  O      335.713    -896.410    -890.680
  O      335.564    -898.250    -892.430
  O      333.440    -897.710    -891.030
  H      336.107    -897.840    -893.160
  H      334.258    -895.830    -889.300
  H      335.179    -894.510    -890.130
  H      335.962    -895.490    -888.890
  H      340.057    -894.434    -898.093
  H      341.332    -894.881    -896.985
  H      340.077    -893.778    -896.474

 3  4  5  6  7  8  9  10  11  12  13  23  28  29  30  31  32 0
 6-311+G(2d,p)
 ****
 33  34 0
 6-311+G(2d,p)
 ****
 1  2  14  15  16  17  18  19  20  21  22  24  25  26 0
 3-21G
 ****
 27  35  36  37  38  39  40  41  42  43  44  45 0
 3-21G
 ****


