%nproc=1
%NoSave
%Mem=1900MB
#P OB98/GEN NMR

erre ene a

0 1
  C       21.924      24.039     -48.663
  O       23.328      24.122     -48.543
  H       21.662      23.030     -48.995
  H       21.564      24.754     -49.407
  H       21.439      24.227     -47.702
  P       23.975      25.460     -47.942
  C       24.086      26.341     -50.361
  O       23.719      26.622     -49.017
  C       23.916      27.592     -51.218
  O       22.554      28.067     -51.146
  C       24.789      28.763     -50.781
  O       26.132      28.565     -51.176
  C       24.073      29.915     -51.469
  O       24.419      29.980     -52.861
  C       22.591      29.505     -51.298
  N       21.944      30.172     -50.167
  C       21.557      31.492     -50.374
  O       21.738      32.090     -51.431
  N       20.991      32.122     -49.297
  C       20.864      31.598     -48.043
  O       20.556      32.266     -47.061
  C       21.219      30.179     -47.905
  C       21.750      29.544     -48.953
  O       25.383      25.340     -47.464
  O       22.982      25.853     -46.748
  H       23.376      25.578     -45.898
  H       24.106      29.147     -53.264
  H       20.750      33.094     -49.422
  H       21.072      29.708     -46.942
  H       22.048      28.505     -48.865
  H       22.020      29.742     -52.205
  H       24.325      30.882     -51.031
  H       24.718      28.900     -49.696
  H       24.124      27.321     -52.262
  H       23.434      25.547     -50.742
  H       25.123      25.991     -50.384
  P       27.344      28.936     -50.201
  C       27.778      31.095     -51.510
  O       27.538      30.526     -50.230
  O       28.597      28.155     -50.424
  O       26.762      28.672     -48.731
  H       27.369      28.077     -48.250
  H       27.892      32.155     -51.414
  H       26.952      30.882     -52.156
  H       28.671      30.677     -51.924

 6  7  8  9  10  11  12  13  14  15  16  27  31  32  33  34  35 0
 6-311+G(2d,p)
 ****
 36  37 0
 6-311+G(2d,p)
 ****
 1  2  3  4  5  17  18  19  20  21  22  23  24  25 0
 3-21G
 ****
 26  28  29  30  38  39  40  41  42  43  44  45 0
 3-21G
 ****


