%nproc=1
%NoSave
%Mem=1900MB
#P OB98/GEN NMR

erre ene a

0 1
  C      -30.382     766.714    -731.841
  O      -29.907     765.611    -732.596
  H      -29.625     766.973    -731.095
  H      -31.301     766.441    -731.322
  H      -30.551     767.582    -732.487
  P      -30.726     765.150    -733.888
  C      -28.373     765.022    -734.958
  O      -29.686     764.452    -734.885
  C      -27.317     763.922    -734.832
  O      -27.434     763.249    -733.565
  C      -27.445     762.831    -735.895
  O      -26.959     763.275    -737.152
  C      -26.625     761.717    -735.244
  O      -25.221     761.933    -735.441
  C      -27.000     761.888    -733.755
  N      -28.032     760.945    -733.313
  C      -27.638     759.614    -733.147
  O      -26.486     759.224    -733.393
  N      -28.602     758.753    -732.703
  C      -29.917     759.058    -732.493
  O      -30.755     758.229    -732.153
  C      -30.293     760.464    -732.712
  C      -29.345     761.335    -733.107
  O      -31.592     766.200    -734.529
  O      -31.604     763.908    -733.365
  H      -25.063     761.904    -736.405
  H      -32.512     764.207    -733.183
  H      -28.336     757.789    -732.593
  H      -31.340     760.750    -732.565
  H      -29.604     762.378    -733.275
  H      -26.113     761.757    -733.114
  H      -26.852     760.731    -735.650
  H      -28.484     762.487    -735.973
  H      -26.326     764.398    -734.885
  H      -28.255     765.739    -734.142
  H      -28.280     765.559    -735.910
  P      -27.920     763.304    -738.434
  C      -26.620     765.323    -739.346
  O      -27.099     764.013    -739.628
  O      -29.280     763.866    -738.202
  O      -27.990     761.779    -738.897
  H      -28.866     761.400    -738.668
  H      -26.093     765.701    -740.197
  H      -25.960     765.288    -738.504
  H      -27.447     765.965    -739.125

 6  7  8  9  10  11  12  13  14  15  16  26  31  32  33  34  35 0
 6-311+G(2d,p)
 ****
 36  37 0
 6-311+G(2d,p)
 ****
 1  2  3  4  5  17  18  19  20  21  22  23  24  25 0
 3-21G
 ****
 27  28  29  30  38  39  40  41  42  43  44  45 0
 3-21G
 ****


