%nproc=1
%NoSave
%Mem=1900MB
#P OB98/GEN NMR

erre ene a

0 1
  C        5.585    -231.957      22.758
  O        6.306    -231.908      23.984
  P        6.315    -230.583      24.887
  C        6.128    -231.927      27.078
  O        5.504    -230.969      26.214
  C        5.075    -232.577      27.975
  O        4.454    -233.665      27.241
  C        5.608    -233.219      29.263
  O        5.778    -232.315      30.348
  C        4.471    -234.186      29.583
  O        3.375    -233.469      30.187
  C        4.073    -234.685      28.197
  N        3.665    -239.797      28.256
  C        2.818    -238.808      28.659
  N        3.008    -237.474      28.619
  C        4.196    -237.183      28.071
  C        5.162    -238.076      27.621
  C        4.856    -239.443      27.730
  N        5.710    -240.443      27.301
  N        6.273    -237.389      27.139
  C        5.970    -236.121      27.289
  N        4.730    -235.941      27.843
  O        5.856    -229.348      24.179
  O        7.828    -230.476      25.411
  H        3.672    -233.203      31.083
  H        8.001    -229.571      25.743
  H        1.863    -239.145      29.065
  H        6.613    -235.297      27.015
  H        2.988    -234.838      28.097
  H        4.767    -234.969      30.291
  H        6.525    -233.791      29.073
  H        4.301    -231.831      28.202
  H        6.861    -231.400      27.697
  H        5.353    -241.382      27.293
  H        6.518    -240.173      26.758
  H        6.658    -232.678      26.477
  P        7.225    -231.646      30.518
  C        6.481    -229.130      30.548
  O        7.121    -230.191      29.856
  O        8.369    -232.493      30.045
  O        7.276    -231.331      32.097
  H        6.661    -230.649      32.400
  H        6.661    -228.200      30.001
  H        6.891    -229.023      31.569
  H        5.405    -229.317      30.598
  H        5.706    -232.922      22.311
  H        5.960    -231.207      22.093
  H        4.547    -231.779      22.947

 3  4  5  6  7  8  9  10  11  12  22  25  29  30  31  32 0
 6-311+G(2d,p)
 ****
 33  36  37 0
 6-311+G(2d,p)
 ****
 1  2  13  14  15  16  17  18  19  20  21  23  24  26 0
 3-21G
 ****
 27  28  34  35  38  39  40  41  42  43  44  45  46  47  48 0
 3-21G
 ****


