%nproc=1
%NoSave
%Mem=1900MB
#P OB98/GEN NMR

erre ene a

0 1
  C     -690.593     -77.132    -572.438
  O     -691.130     -77.593    -571.216
  P     -692.654     -77.226    -570.872
  C     -692.117     -76.131    -568.571
  O     -692.605     -75.950    -569.899
  C     -692.338     -74.852    -567.757
  O     -691.468     -73.800    -568.203
  C     -693.743     -74.283    -567.863
  O     -694.669     -74.945    -567.003
  C     -693.516     -72.850    -567.378
  O     -693.460     -72.819    -565.941
  C     -692.135     -72.532    -567.980
  N     -694.173     -68.496    -570.252
  C     -694.137     -68.831    -568.905
  N     -694.790     -68.010    -568.064
  N     -693.510     -69.884    -568.443
  C     -692.912     -70.624    -569.399
  C     -692.871     -70.388    -570.758
  C     -693.567     -69.230    -571.275
  O     -693.679     -68.911    -572.448
  N     -692.154     -71.357    -571.414
  C     -691.767     -72.177    -570.461
  N     -692.226     -71.804    -569.229
  O     -693.117     -78.410    -569.899
  O     -693.540     -77.090    -572.072
  H     -694.364     -73.049    -565.627
  H     -694.089     -78.438    -569.854
  H     -694.657     -67.676    -570.567
  H     -691.144     -73.055    -570.620
  H     -691.519     -71.951    -567.290
  H     -694.316     -72.170    -567.688
  H     -695.339     -67.217    -568.368
  H     -694.101     -74.268    -568.897
  H     -694.834     -68.267    -567.082
  H     -692.091     -75.075    -566.706
  H     -691.063     -76.370    -568.600
  H     -692.656     -76.968    -568.104
  P     -696.222     -74.633    -567.238
  C     -696.553     -73.794    -564.799
  O     -696.598     -73.486    -566.184
  O     -696.943     -75.944    -566.652
  O     -696.592     -74.372    -568.658
  H     -697.809     -76.077    -567.090
  H     -696.576     -72.858    -564.231
  H     -695.653     -74.341    -564.545
  H     -697.428     -74.379    -564.521
  H     -689.576     -77.454    -572.525
  H     -690.633     -76.063    -572.464
  H     -691.163     -77.530    -573.251

 3  4  5  6  7  8  9  10  11  12  23  26  30  31 0
 6-311+G(2d,p)
 ****
 33  35  36  37  38 0
 6-311+G(2d,p)
 ****
 1  2  13  14  15  16  17  18  19  20  21  22  24  25 0
 3-21G
 ****
 27  28  29  32  34  39  40  41  42  43  44  45  46  47  48  49 0
 3-21G
 ****


