%nproc=1
%NoSave
%Mem=1900MB
#P OB98/GEN NMR

erre ene a

0 1
  C      150.096     -78.797    -678.444
  O      148.957     -78.560    -677.640
  H      150.951     -78.286    -677.998
  H      149.935     -78.405    -679.451
  H      150.306     -79.868    -678.488
  P      147.563     -79.138    -678.187
  C      146.278     -77.451    -676.666
  O      146.542     -77.911    -677.981
  C      145.614     -76.078    -676.714
  O      146.585     -75.055    -677.040
  C      144.521     -75.941    -677.769
  O      143.296     -76.541    -677.389
  C      144.416     -74.427    -677.840
  O      143.720     -73.939    -676.679
  C      145.905     -74.029    -677.807
  N      146.496     -73.910    -679.144
  C      146.554     -72.627    -679.696
  O      146.129     -71.656    -679.073
  N      147.069     -72.474    -680.961
  C      147.505     -73.503    -681.616
  N      147.998     -73.291    -682.861
  C      147.474     -74.876    -681.067
  C      146.961     -75.003    -679.845
  O      147.112     -80.163    -677.046
  O      147.587     -79.711    -679.563
  H      143.946     -72.994    -676.590
  H      146.185     -80.470    -677.213
  H      147.833     -75.706    -681.655
  H      146.905     -75.980    -679.379
  H      146.047     -73.077    -677.281
  H      143.867     -74.073    -678.710
  H      144.853     -76.318    -678.744
  H      145.231     -75.859    -675.710
  H      147.953     -72.348    -683.234
  H      147.230     -77.389    -676.125
  H      148.221     -74.044    -683.502
  H      145.620     -78.154    -676.148
  P      142.635     -77.582    -678.417
  C      140.924     -78.365    -676.615
  O      141.133     -77.839    -677.918
  O      143.375     -78.954    -678.077
  O      142.773     -77.208    -679.863
  H      143.497     -79.495    -678.881
  H      139.874     -78.476    -676.439
  H      141.338     -77.696    -675.890
  H      141.402     -79.319    -676.535

 6  7  8  9  10  11  12  13  14  15  16  26  30  31  32  33  35 0
 6-311+G(2d,p)
 ****
 37  38 0
 6-311+G(2d,p)
 ****
 1  2  3  4  5  17  18  19  20  21  22  23  24  25 0
 3-21G
 ****
 27  28  29  34  36  39  40  41  42  43  44  45  46 0
 3-21G
 ****


