%nproc=1
%NoSave
%Mem=1900MB
#P OB98/GEN NMR

erre ene a

0 1
  C     -399.020      50.758     721.518
  O     -398.474      49.617     720.897
  H     -399.972      50.489     721.993
  H     -399.213      51.524     720.757
  H     -398.346      51.162     722.279
  P     -396.922      49.666     720.490
  C     -396.108      47.669     721.943
  O     -396.362      48.166     720.633
  C     -396.234      46.141     721.959
  O     -397.652      45.790     721.841
  C     -395.477      45.421     720.820
  O     -394.951      44.193     721.325
  C     -396.595      45.094     719.843
  O     -396.259      44.004     718.991
  C     -397.747      44.797     720.804
  N     -401.049      41.964     718.291
  C     -399.946      41.601     719.034
  N     -399.619      40.291     719.069
  N     -399.204      42.465     719.689
  C     -399.649      43.743     719.589
  C     -400.721      44.220     718.879
  C     -401.537      43.268     718.145
  O     -402.503      43.516     717.463
  N     -400.799      45.599     718.983
  C     -399.758      45.943     719.722
  N     -399.032      44.857     720.122
  O     -396.260      50.436     721.739
  O     -396.622      50.344     719.195
  H     -395.413      44.196     718.553
  H     -396.190      51.386     721.535
  H     -401.584      41.268     717.789
  H     -399.487      46.948     719.995
  H     -397.668      43.816     721.261
  H     -396.820      45.966     719.209
  H     -400.160      39.564     718.617
  H     -394.682      46.014     720.377
  H     -398.835      40.013     719.638
  H     -395.898      45.768     722.944
  H     -396.840      48.101     722.638
  H     -395.106      47.975     722.250
  P     -393.376      43.927     721.172
  C     -392.667      43.778     723.672
  O     -392.861      43.096     722.440
  O     -392.743      45.379     721.414
  O     -392.984      43.364     719.837
  H     -391.947      45.491     720.838
  H     -392.324      43.086     724.412
  H     -393.593      44.211     723.990
  H     -391.939      44.551     723.541

 6  7  8  9  10  11  12  13  14  15  26  29  33  34 0
 6-311+G(2d,p)
 ****
 36  38  39  40  41 0
 6-311+G(2d,p)
 ****
 1  2  3  4  5  16  17  18  19  20  21  22  23  24  25 0
 3-21G
 ****
 27  28  30  31  32  35  37  42  43  44  45  46  47 0
 3-21G
 ****
 48  49 0
 3-21G
 ****


