%nproc=1
%NoSave
%Mem=1900MB
#P OB98/GEN NMR

erre ene a

0 1
  C     -117.972    -470.631    -555.374
  O     -117.828    -470.420    -556.764
  P     -117.088    -469.115    -557.328
  C     -114.975    -470.321    -558.139
  O     -115.505    -469.361    -557.235
  C     -113.738    -469.782    -558.850
  O     -114.134    -468.750    -559.791
  C     -112.680    -469.184    -557.913
  O     -111.394    -469.540    -558.438
  C     -112.913    -467.692    -558.039
  O     -111.772    -466.935    -557.674
  C     -113.321    -467.594    -559.517
  N     -114.032    -466.362    -559.815
  C     -113.267    -465.205    -559.948
  O     -112.060    -465.224    -559.685
  N     -113.886    -464.051    -560.356
  C     -115.182    -464.015    -560.437
  N     -115.745    -462.875    -560.910
  C     -116.040    -465.152    -560.062
  C     -115.406    -466.297    -559.804
  O     -117.553    -467.826    -556.745
  O     -117.365    -469.167    -558.904
  H     -117.750    -468.307    -559.190
  H     -111.040    -467.141    -558.295
  H     -117.112    -465.039    -560.024
  H     -115.953    -467.196    -559.543
  H     -112.434    -467.655    -560.165
  H     -113.742    -467.396    -557.391
  H     -112.764    -469.557    -556.889
  H     -113.298    -470.602    -559.439
  H     -115.129    -462.129    -561.198
  H     -115.743    -470.552    -558.877
  H     -116.691    -462.860    -561.304
  H     -114.738    -471.249    -557.601
  P     -110.178    -469.734    -557.410
  C     -110.587    -472.291    -557.234
  O     -110.458    -471.061    -556.557
  O     -110.478    -468.574    -556.337
  O     -108.804    -469.563    -557.964
  H     -109.642    -468.319    -555.901
  H     -110.841    -473.063    -556.508
  H     -109.650    -472.562    -557.717
  H     -111.389    -472.230    -557.975
  H     -118.490    -471.552    -555.205
  H     -118.530    -469.824    -554.947
  H     -117.005    -470.677    -554.918

 3  4  5  6  7  8  9  10  11  12  13  24  27  28  29  30  32 0
 6-311+G(2d,p)
 ****
 34  35 0
 6-311+G(2d,p)
 ****
 1  2  14  15  16  17  18  19  20  21  22  23  25  26 0
 3-21G
 ****
 31  33  36  37  38  39  40  41  42  43  44  45  46 0
 3-21G
 ****


