%nproc=1
%NoSave
%Mem=1900MB
#P OB98/GEN NMR

erre ene a

0 1
  C       -0.520      12.901     -38.926
  O       -0.797      12.242     -37.706
  H       -0.898      13.924     -38.863
  H       -1.017      12.394     -39.757
  H        0.559      12.937     -39.102
  P       -0.378      10.704     -37.556
  C       -2.808       9.836     -37.655
  O       -1.627       9.965     -36.873
  C       -3.618       8.628     -37.194
  O       -4.895       8.595     -37.859
  C       -2.952       7.282     -37.475
  O       -1.985       6.984     -36.482
  C       -4.157       6.358     -37.411
  O       -4.520       6.131     -36.035
  C       -5.240       7.204     -38.107
  N       -7.663       4.715     -41.805
  C       -7.739       4.558     -40.436
  N       -8.554       3.578     -39.989
  N       -7.069       5.286     -39.581
  C       -6.242       6.178     -40.172
  C       -6.066       6.415     -41.516
  C       -6.864       5.647     -42.449
  O       -6.844       5.773     -43.671
  N       -5.071       7.333     -41.740
  C       -4.684       7.690     -40.530
  N       -5.359       7.010     -39.541
  O        0.930      10.443     -36.872
  O       -0.396      10.143     -39.053
  H       -3.796       5.621     -35.628
  H        0.484      10.215     -39.467
  H       -8.198       4.119     -42.415
  H       -3.928       8.434     -40.312
  H       -6.234       7.030     -37.681
  H       -3.967       5.382     -37.860
  H       -8.977       2.891     -40.595
  H       -2.530       7.246     -38.485
  H       -8.577       3.410     -38.991
  H       -3.818       8.748     -36.121
  H       -2.500       9.715     -38.698
  H       -3.420      10.740     -37.574
  P       -0.484       6.565     -36.872
  C       -0.995       4.074     -37.345
  O       -0.365       5.012     -36.490
  O        0.579       7.432     -36.290
  O       -0.488       6.515     -38.467
  H       -0.325       7.399     -38.881
  H       -0.834       3.085     -36.970
  H       -0.581       4.154     -38.329
  H       -2.045       4.275     -37.382

 6  7  8  9  10  11  12  13  14  15  26  29  33  34 0
 6-311+G(2d,p)
 ****
 36  38  39  40  41 0
 6-311+G(2d,p)
 ****
 1  2  3  4  5  16  17  18  19  20  21  22  23  24  25 0
 3-21G
 ****
 27  28  30  31  32  35  37  42  43  44  45  46  47 0
 3-21G
 ****
 48  49 0
 3-21G
 ****


