%nproc=1
%NoSave
%Mem=1900MB
#P OB98/GEN NMR

erre ene a

0 1
  C      170.605      46.770    -705.436
  O      171.814      46.545    -706.166
  P      171.805      46.886    -707.724
  C      174.188      47.847    -707.377
  O      173.348      47.001    -708.165
  C      175.431      47.095    -706.929
  O      176.035      46.449    -708.057
  C      176.522      47.973    -706.321
  O      176.256      48.271    -704.957
  C      177.735      47.054    -706.445
  O      177.760      46.119    -705.358
  C      177.464      46.333    -707.793
  N      181.915      46.502    -710.197
  C      181.552      45.796    -709.073
  N      182.489      44.988    -708.526
  N      180.365      45.861    -708.535
  C      179.516      46.666    -709.199
  C      179.756      47.441    -710.327
  C      181.092      47.393    -710.892
  O      181.495      48.034    -711.850
  N      178.646      48.127    -710.735
  C      177.711      47.750    -709.886
  N      178.199      46.893    -708.911
  O      171.282      48.409    -707.777
  O      170.952      45.987    -708.573
  H      177.759      46.634    -704.537
  H      170.866      48.584    -708.640
  H      182.842      46.396    -710.581
  H      176.673      48.072    -709.921
  H      177.694      45.264    -707.713
  H      178.691      47.609    -706.417
  H      183.383      44.798    -708.977
  H      176.680      48.872    -706.915
  H      182.227      44.431    -707.725
  H      175.120      46.311    -706.217
  H      173.631      48.186    -706.486
  H      174.455      48.737    -707.973
  P      176.093      49.835    -704.597
  C      175.232      48.918    -702.320
  O      176.020      49.882    -702.990
  O      174.614      50.174    -705.080
  O      177.112      50.731    -705.238
  H      174.529      51.126    -705.281
  H      175.276      47.946    -702.818
  H      174.195      49.256    -702.283
  H      175.599      48.809    -701.299
  H      170.752      46.501    -704.411
  H      169.821      46.173    -705.852
  H      170.338      47.804    -705.498

 3  4  5  6  7  8  9  10  11  12  23  26  30  31  33  0
 6-311+G(2d,p)
 ****
 35  36  37  38 0
 6-311+G(2d,p)
 ****
 1  2  13  14  15  16  17  18  19  20  21  22  24  25  27  28  29 0
 3-21G
 ****
 32  34  39  40  41  42  43  44  45  46  47  48  49 0
 3-21G
 ****


