%nproc=1
%NoSave
%Mem=1900MB
#P OB98/GEN NMR

erre ene a

0 1
  C      193.554    -114.599      -6.421
  O      193.814    -115.359      -5.253
  P      195.270    -115.396      -4.586
  C      197.545    -116.423      -5.218
  O      196.173    -116.303      -5.562
  C      198.314    -117.250      -6.252
  O      197.992    -116.766      -7.589
  C      199.838    -117.215      -6.101
  O      200.318    -118.504      -6.507
  C      200.246    -116.150      -7.110
  O      201.617    -116.231      -7.475
  C      199.239    -116.427      -8.244
  N      199.103    -115.290      -9.141
  C      200.150    -115.072     -10.041
  O      201.167    -115.778      -9.992
  N      200.060    -114.033     -10.932
  C      199.049    -113.216     -10.861
  N      199.002    -112.207     -11.772
  C      197.982    -113.336      -9.845
  C      198.064    -114.393      -9.036
  O      195.301    -115.793      -3.149
  O      195.850    -113.927      -4.851
  H      202.139    -116.443      -6.668
  H      195.450    -113.279      -4.218
  H      197.190    -112.603      -9.785
  H      197.328    -114.567      -8.259
  H      199.553    -117.309      -8.826
  H      200.071    -115.154      -6.685
  H      200.171    -116.978      -5.085
  H      197.953    -118.287      -6.190
  H      199.744    -112.175     -12.461
  H      197.609    -116.932      -4.252
  H      198.222    -111.570     -11.850
  H      197.992    -115.433      -5.106
  P      201.493    -119.248      -5.712
  C      203.976    -118.802      -5.256
  O      202.853    -118.473      -6.056
  O      201.549    -120.732      -5.905
  O      201.234    -118.864      -4.175
  H      201.743    -119.473      -3.600
  H      204.885    -118.444      -5.753
  H      204.053    -119.890      -5.123
  H      203.882    -118.321      -4.279
  H      192.527    -114.712      -6.698
  H      194.179    -114.945      -7.218
  H      193.760    -113.567      -6.228

 3  4  5  6  7  8  9  10  11  12  13  23  27  28  29  30  32 0
 6-311+G(2d,p)
 ****
 34  35 0
 6-311+G(2d,p)
 ****
 1  2  14  15  16  17  18  19  20  21  22  24  25  26 0
 3-21G
 ****
 31  33  36  37  38  39  40  41  42  43  44  45  46 0
 3-21G
 ****


