%nproc=1
%NoSave
%Mem=1900MB
#P OB98/GEN NMR

erre ene a

0 1
  C      -18.596    -398.283     193.745
  O      -17.919    -397.298     192.995
  H      -19.505    -398.575     193.201
  H      -18.895    -397.877     194.714
  H      -17.970    -399.166     193.885
  P      -16.485    -396.788     193.498
  C      -17.080    -395.912     195.850
  O      -16.456    -396.940     195.097
  C      -16.078    -395.248     196.800
  O      -16.740    -394.154     197.484
  C      -15.513    -396.192     197.866
  O      -14.137    -395.881     198.089
  C      -16.330    -395.868     199.098
  O      -15.630    -396.167     200.305
  C      -16.603    -394.370     198.904
  N      -18.451    -391.106     202.298
  C      -17.180    -391.193     201.735
  N      -16.267    -390.286     202.158
  N      -16.845    -392.090     200.853
  C      -17.868    -392.912     200.506
  C      -19.159    -392.927     200.978
  C      -19.513    -391.941     201.979
  O      -20.610    -391.822     202.521
  N      -19.894    -393.935     200.396
  C      -19.045    -394.524     199.575
  N      -17.804    -393.950     199.612
  O      -16.086    -395.433     192.990
  O      -15.468    -397.918     193.008
  H      -16.147    -395.782     201.043
  H      -14.954    -397.617     192.231
  H      -18.645    -390.398     202.978
  H      -19.285    -395.370     198.943
  H      -15.774    -393.747     199.269
  H      -17.263    -396.445     199.091
  H      -16.470    -389.552     202.825
  H      -15.604    -397.245     197.573
  H      -15.339    -390.315     201.747
  H      -15.272    -394.803     196.203
  H      -17.896    -396.358     196.429
  H      -17.499    -395.161     195.163
  P      -13.015    -396.585     197.188
  C      -12.545    -398.652     198.661
  O      -13.076    -398.180     197.432
  O      -11.645    -395.995     197.285
  O      -13.603    -396.435     195.708
  H      -12.860    -396.311     195.085
  H      -12.642    -399.717     198.706
  H      -13.082    -398.210     199.474
  H      -11.511    -398.385     198.729

 6  7  8  9  10  11  12  13  14  15  26  29  33  34 0
 6-311+G(2d,p)
 ****
 36  38  39  40  41 0
 6-311+G(2d,p)
 ****
 1  2  3  4  5  16  17  18  19  20  21  22  23  24  25 0
 3-21G
 ****
 27  28  30  31  32  35  37  42  43  44  45  46  47 0
 3-21G
 ****
 48  49 0
 3-21G
 ****


