%nproc=1
%NoSave
%Mem=1900MB
#P OB98/GEN NMR

erre ene a

0 1
  C      -25.976      47.892      29.436
  O      -25.152      46.761      29.209
  P      -23.578      46.908      29.496
  C      -22.252      47.047      31.735
  O      -23.432      47.380      31.023
  C      -21.998      48.057      32.856
  O      -21.537      49.299      32.264
  C      -23.226      48.391      33.711
  O      -22.752      48.665      35.035
  C      -23.744      49.670      33.081
  O      -24.567      50.425      33.965
  C      -22.433      50.346      32.695
  N      -23.514      55.166      31.611
  C      -23.521      54.510      32.829
  N      -23.798      55.264      33.914
  N      -23.276      53.234      32.969
  C      -23.000      52.614      31.797
  C      -23.000      53.144      30.529
  C      -23.235      54.563      30.391
  O      -23.154      55.202      29.345
  N      -22.761      52.184      29.582
  C      -22.536      51.092      30.283
  N      -22.623      51.313      31.632
  O      -23.183      48.210      28.658
  O      -22.741      45.720      29.142
  H      -24.044      50.618      34.769
  H      -22.851      47.970      27.771
  H      -23.692      56.155      31.568
  H      -22.302      50.122      29.874
  H      -21.966      50.870      33.540
  H      -24.339      49.429      32.191
  H      -23.965      56.258      33.883
  H      -23.975      47.595      33.731
  H      -23.777      54.815      34.822
  H      -21.186      47.675      33.487
  H      -21.403      47.073      31.044
  H      -22.339      46.033      32.137
  P      -23.728      48.339      36.264
  C      -24.771      46.198      37.280
  O      -24.112      46.788      36.178
  O      -25.088      49.077      35.842
  O      -23.250      48.827      37.592
  H      -25.553      49.386      36.642
  H      -25.304      45.308      36.936
  H      -25.491      46.885      37.736
  H      -24.033      45.899      38.028
  H      -26.991      47.646      29.204
  H      -25.653      48.699      28.813
  H      -25.906      48.184      30.463

 3  4  5  6  7  8  9  10  11  12  23  26  30  31 0
 6-311+G(2d,p)
 ****
 33  35  36  37  38 0
 6-311+G(2d,p)
 ****
 1  2  13  14  15  16  17  18  19  20  21  22  24  25 0
 3-21G
 ****
 27  28  29  32  34  39  40  41  42  43  44  45  46  47  48  49 0
 3-21G
 ****


