%nproc=1
%NoSave
%Mem=1900MB
#P OB98/GEN NMR

erre ene a

0 1
  C     -464.736    1090.091     -40.298
  O     -465.535    1090.709     -39.310
  H     -464.858    1089.000     -40.266
  H     -465.042    1090.451     -41.275
  H     -463.681    1090.345     -40.135
  P     -465.310    1090.222     -37.802
  C     -467.462    1088.942     -37.137
  O     -466.754    1090.171     -37.108
  C     -468.806    1089.072     -36.440
  O     -468.624    1089.312     -35.032
  C     -469.665    1090.253     -36.916
  O     -470.329    1089.948     -38.138
  C     -470.648    1090.384     -35.763
  O     -471.700    1089.392     -35.896
  C     -469.770    1090.059     -34.546
  N     -471.069    1093.875     -31.353
  C     -471.795    1092.848     -31.896
  N     -471.396    1091.890     -32.738
  C     -470.092    1092.019     -33.016
  C     -469.223    1093.009     -32.559
  C     -469.762    1093.969     -31.693
  N     -469.023    1095.003     -31.161
  N     -467.946    1092.815     -33.047
  C     -468.027    1091.742     -33.798
  N     -469.309    1091.223     -33.816
  O     -464.603    1091.473     -37.096
  O     -464.486    1088.979     -37.644
  H     -471.248    1088.530     -36.001
  H     -463.954    1091.153     -36.452
  H     -472.849    1092.835     -31.585
  H     -467.215    1091.290     -34.340
  H     -470.296    1089.403     -33.843
  H     -471.141    1091.356     -35.715
  H     -469.059    1091.177     -37.001
  H     -469.363    1088.136     -36.557
  H     -466.878    1088.163     -36.626
  H     -469.415    1095.549     -30.402
  H     -468.037    1095.074     -31.418
  H     -467.606    1088.648     -38.178
  P     -469.740    1090.603     -39.491
  C     -471.767    1091.113     -41.023
  O     -470.744    1090.178     -40.653
  O     -468.438    1089.701     -39.779
  O     -469.398    1092.048     -39.394
  H     -467.793    1090.219     -40.308
  H     -472.362    1090.698     -41.809
  H     -471.314    1092.022     -41.360
  H     -472.387    1091.317     -40.175

 6  7  8  9  10  11  12  13  14  15  25  28  32  33  34  35 0
 6-311+G(2d,p)
 ****
 36  39  40 0
 6-311+G(2d,p)
 ****
 1  2  3  4  5  16  17  18  19  20  21  22  23  24 0
 3-21G
 ****
 26  27  29  30  31  37  38  41  42  43  44  45  46  47  48 0
 3-21G
 ****


