%nproc=1
%NoSave
%Mem=1900MB
#P OB98/GEN NMR

erre ene a

0 1
  C     -307.666     118.046    -180.529
  O     -307.840     119.012    -181.537
  P     -306.805     119.080    -182.760
  C     -307.785     117.193    -184.209
  O     -307.574     118.600    -184.083
  C     -308.684     116.896    -185.402
  O     -310.017     117.397    -185.169
  C     -308.228     117.547    -186.703
  O     -307.138     116.842    -187.265
  C     -309.508     117.493    -187.527
  O     -309.671     116.198    -188.124
  C     -310.584     117.729    -186.457
  N     -314.723     120.664    -187.014
  C     -314.512     119.351    -187.241
  N     -313.367     118.643    -187.106
  C     -312.366     119.451    -186.711
  C     -312.416     120.818    -186.473
  C     -313.678     121.433    -186.617
  N     -313.914     122.759    -186.332
  N     -311.171     121.293    -186.119
  C     -310.383     120.240    -186.147
  N     -311.074     119.098    -186.439
  O     -305.488     118.422    -182.522
  O     -306.616     120.649    -183.009
  H     -310.479     116.222    -188.667
  H     -305.678     120.892    -182.880
  H     -315.380     118.788    -187.564
  H     -309.312     120.249    -185.954
  H     -311.454     117.077    -186.601
  H     -309.520     118.230    -188.341
  H     -307.964     118.596    -186.522
  H     -308.753     115.807    -185.521
  H     -308.254     116.830    -183.288
  H     -314.875     123.060    -186.327
  H     -313.238     123.258    -185.754
  H     -306.817     116.693    -184.334
  P     -306.482     117.357    -188.637
  C     -304.390     118.209    -187.427
  O     -304.892     117.349    -188.427
  O     -307.048     118.625    -189.187
  O     -306.710     116.130    -189.641
  H     -306.825     116.473    -190.549
  H     -304.362     119.236    -187.801
  H     -303.371     117.897    -187.170
  H     -305.008     118.160    -186.521
  H     -308.443     118.147    -179.800
  H     -306.715     118.188    -180.059
  H     -307.708     117.068    -180.961

 3  4  5  6  7  8  9  10  11  12  22  25  29  30  31  32 0
 6-311+G(2d,p)
 ****
 33  36  37 0
 6-311+G(2d,p)
 ****
 1  2  13  14  15  16  17  18  19  20  21  23  24  26 0
 3-21G
 ****
 27  28  34  35  38  39  40  41  42  43  44  45  46  47  48 0
 3-21G
 ****


