%nproc=1
%NoSave
%Mem=1900MB
#P OB98/GEN NMR

erre ene a

0 1
  C     -402.017     236.108     140.545
  O     -400.803     235.486     140.173
  H     -401.790     237.032     141.078
  H     -402.592     235.451     141.198
  H     -402.606     236.350     139.654
  P     -400.923     234.110     139.347
  C     -400.802     235.458     137.120
  O     -400.272     234.389     137.910
  C     -400.031     235.551     135.807
  O     -398.765     236.221     136.023
  C     -399.673     234.189     135.195
  O     -400.782     233.596     134.531
  C     -398.536     234.590     134.270
  O     -399.020     235.093     133.014
  C     -397.828     235.701     135.045
  N     -392.883     234.624     134.385
  C     -393.812     235.155     133.556
  N     -395.103     235.426     133.810
  C     -395.411     235.104     135.089
  C     -394.566     234.566     136.049
  C     -393.245     234.318     135.647
  N     -392.302     233.757     136.490
  N     -395.258     234.344     137.229
  C     -396.491     234.749     136.988
  N     -396.623     235.235     135.713
  O     -402.490     234.006     139.046
  O     -400.408     232.901     140.059
  H     -398.245     235.514     132.584
  H     -402.905     233.392     139.685
  H     -393.459     235.399     132.545
  H     -397.313     234.719     137.695
  H     -397.543     236.540     134.400
  H     -397.895     233.730     134.053
  H     -399.284     233.528     135.975
  H     -400.615     236.166     135.094
  H     -400.700     236.407     137.668
  H     -401.863     235.263     136.929
  H     -391.400     233.542     136.118
  H     -392.599     233.420     137.399
  P     -400.893     232.004     134.592
  C     -403.010     232.170     136.120
  O     -402.419     231.647     134.935
  O     -400.110     231.600     135.929
  O     -400.348     231.288     133.390
  H     -399.641     230.750     135.801
  H     -404.024     231.834     136.191
  H     -402.990     233.239     136.087
  H     -402.461     231.829     136.973

 6  7  8  9  10  11  12  13  14  15  25  28  32  33  34  35 0
 6-311+G(2d,p)
 ****
 36  37  40 0
 6-311+G(2d,p)
 ****
 1  2  3  4  5  16  17  18  19  20  21  22  23  24 0
 3-21G
 ****
 26  27  29  30  31  38  39 41  42  43  44  45  46  47  48 0
 3-21G
 ****


