%nproc=1
%NoSave
%Mem=1900MB
#P OB98/GEN NMR

erre ene a

0 1
  C     -406.801    -400.027    -899.390
  O     -407.034    -400.372    -898.030
  P     -408.402    -399.877    -897.350
  C     -410.089    -401.816    -897.780
  O     -409.177    -401.202    -896.870
  C     -411.089    -402.689    -897.040
  O     -410.394    -403.736    -896.330
  C     -411.900    -401.959    -895.980
  O     -412.996    -401.243    -896.540
  C     -412.410    -403.117    -895.140
  O     -413.559    -403.717    -895.760
  C     -411.197    -404.097    -895.160
  N     -410.468    -405.913    -890.510
  C     -411.442    -406.240    -891.430
  N     -412.317    -407.194    -891.100
  N     -411.527    -405.665    -892.600
  C     -410.561    -404.744    -892.840
  C     -409.534    -404.340    -891.990
  C     -409.475    -404.956    -890.670
  O     -408.693    -404.655    -889.770
  N     -408.745    -403.393    -892.570
  C     -409.241    -403.261    -893.800
  N     -410.363    -404.035    -893.990
  O     -409.271    -399.389    -898.610
  O     -408.238    -398.800    -896.340
  H     -413.732    -404.543    -895.270
  H     -409.922    -398.704    -898.340
  H     -410.426    -406.414    -889.630
  H     -408.831    -402.609    -894.560
  H     -411.511    -405.124    -895.320
  H     -412.693    -402.809    -894.120
  H     -412.206    -407.767    -890.250
  H     -411.273    -401.298    -895.380
  H     -412.995    -407.482    -891.770
  H     -411.755    -403.158    -897.800
  H     -409.512    -402.458    -898.490
  H     -410.585    -401.023    -898.350
  P     -413.022    -399.637    -896.350
  C     -414.016    -399.478    -898.750
  O     -414.124    -399.099    -897.400
  O     -411.609    -399.206    -896.990
  O     -413.160    -399.210    -894.920
  H     -411.295    -398.367    -896.590
  H     -413.669    -400.507    -898.870
  H     -413.333    -398.803    -899.270
  H     -415.000    -399.401    -899.210
  H     -405.857    -400.423    -899.702
  H     -406.792    -398.962    -899.491
  H     -407.579    -400.437    -900.000

 3  4  5  6  7  8  9  10  11  12  23  26  30  31  33  0
 6-311+G(2d,p)
 ****
 35  36  37  38 0
 6-311+G(2d,p)
 ****
 1  2  13  14  15  16  17  18  19  20  21  22  24  25  27  28  29 0
 3-21G
 ****
 32  34  39  40  41  42  43  44  45  46  47  48  49 0
 3-21G
 ****


