%nproc=1
%NoSave
%Mem=1900MB
#P OB98/GEN NMR

erre ene a

0 1
  C      -76.294       5.826      61.566
  O      -76.110       7.171      61.125
  P      -74.995       8.079      61.837
  C      -72.859       8.162      60.411
  O      -74.102       8.785      60.704
  C      -72.072       8.909      59.326
  O      -72.803       8.920      58.070
  C      -71.746      10.368      59.676
  O      -70.454      10.653      59.123
  C      -72.827      11.128      58.933
  O      -72.504      12.499      58.756
  C      -72.919      10.294      57.652
  N      -74.152      10.532      56.918
  C      -74.153      11.575      55.991
  O      -73.173      12.315      55.896
  N      -75.275      11.769      55.221
  C      -76.345      11.080      55.468
  N      -77.429      11.287      54.672
  C      -76.435      10.094      56.562
  C      -75.306       9.855      57.221
  O      -74.220       7.408      62.922
  O      -75.853       9.303      62.419
  H      -71.722      12.569      58.168
  H      -75.455       9.593      63.265
  H      -77.373       9.605      56.781
  H      -75.267       9.146      58.034
  H      -72.070      10.506      56.987
  H      -73.767      11.072      59.495
  H      -71.725      10.564      60.751
  H      -71.137       8.359      59.151
  H      -77.361      11.984      53.942
  H      -73.043       7.136      60.077
  H      -78.284      10.753      54.767
  H      -72.274       8.079      61.334
  P      -69.403      11.491      59.999
  C      -68.792       9.846      61.916
  O      -68.406      10.452      60.701
  O      -70.314      11.965      61.235
  O      -68.790      12.679      59.333
  H      -69.929      12.774      61.619
  H      -68.145       8.983      62.097
  H      -69.828       9.500      61.877
  H      -68.671      10.555      62.740
  H      -77.070       5.365      60.991
  H      -76.568       5.824      62.600
  H      -75.382       5.281      61.437

 3  4  5  6  7  8  9  10  11  12  13  23  27  28  29  30  32 0
 6-311+G(2d,p)
 ****
 34  35 0
 6-311+G(2d,p)
 ****
 1  2  14  15  16  17  18  19  20  21  22  24  25  26 0
 3-21G
 ****
 31  33  36  37  38  39  40  41  42  43  44  45  46 0
 3-21G
 ****


