%nproc=1
%NoSave
%Mem=1900MB
#P OB98/GEN NMR

erre ene a

0 1
  C      826.249    -615.447    -427.425
  O      826.878    -615.276    -426.153
  P      828.463    -615.541    -426.075
  C      828.947    -612.974    -426.202
  O      829.156    -614.262    -426.758
  C      829.423    -611.882    -427.175
  O      830.757    -612.200    -427.661
  C      828.510    -611.678    -428.387
  O      828.498    -610.272    -428.665
  C      829.240    -612.428    -429.486
  O      828.866    -611.978    -430.782
  C      830.697    -612.147    -429.103
  N      831.637    -613.083    -429.716
  C      831.893    -612.923    -431.071
  O      831.317    -612.089    -431.765
  N      832.810    -613.781    -431.609
  C      833.418    -614.820    -430.959
  O      834.235    -615.561    -431.494
  C      833.020    -615.012    -429.558
  C      832.158    -614.150    -429.009
  O      828.639    -616.710    -427.149
  O      828.930    -615.866    -424.696
  H      828.060    -616.615    -427.924
  H      829.018    -611.010    -430.841
  H      833.038    -613.660    -432.587
  H      833.431    -615.856    -429.024
  H      831.825    -614.278    -427.986
  H      830.981    -611.129    -429.401
  H      829.022    -613.502    -429.417
  H      827.490    -612.034    -428.221
  H      829.500    -610.945    -426.607
  H      829.506    -612.880    -425.266
  H      827.887    -612.854    -425.957
  P      827.158    -609.445    -428.346
  C      828.518    -608.195    -426.490
  O      827.319    -608.834    -426.875
  O      826.132    -610.654    -428.119
  O      826.716    -608.508    -429.424
  H      826.483    -611.352    -427.537
  H      828.341    -607.651    -425.557
  H      828.845    -607.484    -427.247
  H      829.300    -608.940    -426.318
  H      825.203    -615.241    -427.336
  H      826.387    -616.454    -427.759
  H      826.686    -614.774    -428.133

 3  4  5  6  7  8  9  10  11  12  13  24  28  29  30  31  32 0
 6-311+G(2d,p)
 ****
 33  34 0
 6-311+G(2d,p)
 ****
 1  2  14  15  16  17  18  19  20  21  22  23  25  26  27 0
 3-21G
 ****
 35  36  37  38  39  40  41  42  43  44  45 0
 3-21G
 ****


