%nproc=1
%NoSave
%Mem=1900MB
#P OB98/GEN NMR

erre ene a

0 1
  C      293.246      77.464     264.189
  O      292.280      78.483     264.056
  H      294.236      77.923     264.227
  H      293.202      76.797     263.324
  H      293.091      76.887     265.105
  P      290.744      78.130     264.331
  C      290.842      79.712     266.369
  O      290.457      78.436     265.881
  C      289.977      80.131     267.561
  O      288.629      80.402     267.111
  C      289.884      78.991     268.580
  O      289.690      79.471     269.908
  C      288.636      78.243     268.136
  O      288.059      77.455     269.173
  C      287.755      79.396     267.665
  N      282.982      77.852     266.779
  C      283.642      78.019     267.982
  N      282.937      77.709     269.097
  N      284.875      78.431     268.083
  C      285.477      78.628     266.887
  C      284.942      78.477     265.627
  C      283.557      78.056     265.529
  O      282.933      77.872     264.491
  N      285.865      78.750     264.649
  C      286.958      79.064     265.314
  N      286.771      79.016     266.674
  O      290.705      76.529     264.281
  O      289.758      78.730     263.374
  H      287.373      76.890     268.765
  H      289.814      76.216     264.049
  H      282.026      77.545     266.759
  H      287.905      79.333     264.862
  H      287.217      79.846     268.509
  H      288.915      77.560     267.325
  H      282.053      77.224     269.058
  H      290.765      78.348     268.558
  H      283.482      77.543     269.946
  H      290.359      81.059     268.001
  H      290.715      80.422     265.547
  H      291.901      79.710     266.640
  P      290.952      79.447     270.896
  C      290.899      81.972     271.601
  O      291.573      80.924     270.933
  O      292.039      78.584     270.099
  O      290.653      78.870     272.239
  H      292.113      77.692     270.491
  H      291.468      82.874     271.514
  H      290.784      81.720     272.635
  H      289.935      82.115     271.159

 6  7  8  9  10  11  12  13  14  15  26  29  33  34 0
 6-311+G(2d,p)
 ****
 36  38  39  40  41 0
 6-311+G(2d,p)
 ****
 1  2  3  4  5  16  17  18  19  20  21  22  23  24  25 0
 3-21G
 ****
 27  28  30  31  32  35  37  42  43  44  45  46  47 0
 3-21G
 ****
 48  49 0
 3-21G
 ****


