%nproc=1
%NoSave
%Mem=1900MB
#P OB98/GEN NMR

erre ene a

0 1
  C     -321.399     350.591     192.363
  O     -322.812     350.837     192.401
  P     -323.496     351.286     191.007
  C     -325.730     350.281     191.896
  O     -325.072     351.365     191.256
  C     -327.221     350.291     191.588
  O     -327.839     351.510     192.065
  C     -327.561     350.243     190.096
  O     -327.469     348.914     189.592
  C     -328.994     350.725     190.102
  O     -329.879     349.614     190.428
  C     -329.012     351.770     191.256
  N     -330.932     356.428     191.671
  C     -331.280     355.283     192.328
  N     -332.258     355.398     193.283
  N     -330.715     354.121     192.124
  C     -329.735     354.160     191.176
  C     -329.309     355.264     190.451
  C     -329.951     356.522     190.685
  O     -329.719     357.577     190.106
  N     -328.277     354.919     189.608
  C     -328.069     353.637     189.820
  N     -328.935     353.121     190.772
  O     -323.342     349.970     190.087
  O     -322.857     352.484     190.376
  H     -329.564     349.226     191.274
  H     -323.318     350.209     189.148
  H     -331.399     357.307     191.894
  H     -327.313     353.037     189.349
  H     -329.890     351.648     191.880
  H     -329.325     351.112     189.140
  H     -332.675     356.255     193.553
  H     -326.940     350.947     189.541
  H     -332.489     354.547     193.799
  H     -327.682     349.436     192.105
  H     -325.573     350.339     192.973
  H     -325.257     349.348     191.558
  P     -326.456     348.668     188.353
  C     -326.666     346.118     188.882
  O     -326.712     347.154     187.916
  O     -325.033     348.621     189.080
  O     -326.514     349.693     187.290
  H     -324.333     348.902     188.475
  H     -327.198     346.433     189.804
  H     -325.623     345.894     189.120
  H     -327.157     345.230     188.483
  H     -321.061     350.303     193.336
  H     -320.890     351.481     192.058
  H     -321.192     349.806     191.666

 3  4  5  6  7  8  9  10  11  12  23  26  30  31  33  0
 6-311+G(2d,p)
 ****
 35  36  37  38 0
 6-311+G(2d,p)
 ****
 1  2  13  14  15  16  17  18  19  20  21  22  24  25  27  28  29 0
 3-21G
 ****
 32  34  39  40  41  42  43  44  45  46  47  48  49 0
 3-21G
 ****


