%nproc=1
%NoSave
%Mem=1900MB
#P OB98/GEN NMR

erre ene a

0 1
  C      -80.010       0.779      92.407
  O      -79.466      -0.500      92.687
  P      -80.070      -1.411      93.852
  C      -79.452      -3.814      94.714
  O      -79.559      -2.907      93.638
  C      -79.297      -5.234      94.154
  O      -80.470      -5.602      93.402
  C      -78.088      -5.343      93.228
  O      -76.953      -5.809      93.939
  C      -78.573      -6.308      92.164
  O      -78.452      -7.667      92.623
  C      -80.065      -5.914      92.042
  N      -80.413      -4.764      91.186
  C      -80.132      -4.809      89.824
  O      -79.629      -5.777      89.263
  N      -80.434      -3.672      89.117
  C      -81.014      -2.546      89.626
  O      -81.055      -1.466      89.050
  C      -81.530      -2.664      90.993
  C      -81.191      -3.739      91.706
  O      -81.623      -1.494      93.477
  O      -79.855      -0.906      95.241
  H      -79.015      -7.754      93.413
  H      -82.139      -0.856      94.005
  H      -80.104      -3.646      88.157
  H      -82.120      -1.850      91.391
  H      -81.529      -3.830      92.736
  H      -80.668      -6.763      91.701
  H      -77.968      -6.238      91.262
  H      -77.884      -4.374      92.755
  H      -79.199      -5.935      94.992
  H      -80.341      -3.749      95.350
  H      -78.589      -3.556      95.337
  P      -75.603      -6.138      93.145
  C      -73.120      -5.722      93.626
  O      -74.449      -5.347      93.930
  O      -75.650      -5.908      91.671
  O      -75.336      -7.678      93.499
  H      -75.663      -8.247      92.772
  H      -72.439      -4.999      94.081
  H      -72.961      -5.730      92.543
  H      -72.912      -6.712      94.039
  H      -79.471       1.227      91.598
  H      -79.930       1.399      93.276
  H      -81.040       0.677      92.136

 3  4  5  6  7  8  9  10  11  12  13  23  28  29  30  31  32 0
 6-311+G(2d,p)
 ****
 33  34 0
 6-311+G(2d,p)
 ****
 1  2  14  15  16  17  18  19  20  21  22  24  25  26  27 0
 3-21G
 ****
 35  36  37  38  39  40  41  42  43  44  45 0
 3-21G
 ****


