%nproc=1
%NoSave
%Mem=1900MB
#P OB98/GEN NMR

erre ene a

0 1
  C      -98.408     -74.923     352.258
  O      -97.363     -75.844     351.929
  P      -95.882     -75.505     352.449
  C      -94.604     -75.758     350.199
  O      -94.818     -76.261     351.513
  C      -94.704     -76.872     349.150
  O      -93.946     -78.040     349.560
  C      -96.143     -77.352     348.898
  O      -96.242     -77.793     347.533
  C      -96.257     -78.559     349.806
  O      -97.338     -79.407     349.430
  C      -94.858     -79.156     349.643
  N      -95.877     -83.569     351.863
  C      -96.470     -82.967     350.772
  N      -97.453     -83.656     350.156
  N      -96.122     -81.787     350.314
  C      -95.092     -81.231     351.006
  C      -94.433     -81.726     352.107
  C      -94.844     -83.022     352.614
  O      -94.365     -83.596     353.589
  N      -93.468     -80.858     352.546
  C      -93.549     -79.834     351.712
  N      -94.497     -80.030     350.742
  O      -95.795     -76.309     353.836
  O      -95.634     -74.043     352.656
  H      -97.334     -80.174     350.042
  H      -95.820     -75.683     354.578
  H      -96.189     -84.478     352.174
  H      -92.954     -78.934     351.768
  H      -94.765     -79.749     348.717
  H      -96.421     -78.231     350.841
  H      -97.731     -84.590     350.420
  H      -96.919     -76.601     349.085
  H      -97.874     -83.256     349.328
  H      -94.273     -76.509     348.210
  H      -93.624     -75.282     350.131
  H      -95.334     -74.965     350.005
  P      -96.542     -76.673     346.427
  C      -98.407     -78.281     345.591
  O      -97.341     -77.414     345.252
  O      -95.108     -76.383     345.781
  O      -97.182     -75.432     346.955
  H      -95.081     -75.487     345.400
  H      -99.350     -77.774     345.389
  H      -98.369     -78.581     346.643
  H      -98.342     -79.177     344.964
  H      -99.333     -75.273     351.850
  H      -98.178     -73.962     351.848
  H      -98.494     -74.846     353.322

 3  4  5  6  7  8  9  10  11  12  23  26  30  31 0
 6-311+G(2d,p)
 ****
 33  35  36  37  38 0
 6-311+G(2d,p)
 ****
 1  2  13  14  15  16  17  18  19  20  21  22  24  25 0
 3-21G
 ****
 27  28  29  32  34  39  40  41  42  43  44  45  46  47  48  49 0
 3-21G
 ****


