%nproc=1
%NoSave
%Mem=1900MB
#P OB98/GEN NMR

erre ene a

0 1
  C     -106.511     809.488    -431.712
  O     -105.169     809.732    -431.324
  P     -104.736     811.116    -430.637
  C     -103.656     810.062    -428.540
  O     -103.439     810.775    -429.748
  C     -102.363     810.066    -427.690
  O     -101.346     809.331    -428.421
  C     -101.792     811.463    -427.391
  O     -101.216     811.405    -426.070
  C     -100.735     811.635    -428.432
  O      -99.747     812.595    -428.085
  C     -100.183     810.196    -428.548
  N      -99.486     809.972    -429.818
  C      -98.093     809.980    -429.790
  O      -97.480     810.217    -428.756
  N      -97.414     809.729    -430.961
  C      -98.067     809.551    -432.065
  N      -97.356     809.245    -433.190
  C      -99.548     809.621    -432.150
  C     -100.177     809.807    -431.000
  O     -105.820     811.827    -429.905
  O     -104.095     811.965    -431.830
  H      -99.184     812.756    -428.881
  H     -104.766     812.466    -432.363
  H     -100.045     809.502    -433.106
  H     -101.250     809.851    -430.954
  H      -99.507     809.973    -427.704
  H     -101.184     811.965    -429.384
  H     -102.572     812.231    -427.408
  H     -102.561     809.521    -426.772
  H      -96.364     809.049    -433.059
  H     -103.922     809.039    -428.781
  H      -97.788     808.783    -433.980
  H     -104.482     810.525    -427.973
  P     -101.479     812.647    -425.074
  C     -101.075     811.071    -423.038
  O     -100.769     812.298    -423.669
  O     -103.028     812.437    -424.705
  O     -101.262     814.011    -425.616
  H     -103.425     813.300    -424.454
  H     -100.487     810.989    -422.113
  H     -100.779     810.227    -423.684
  H     -102.131     810.998    -422.807
  H     -106.585     808.513    -432.147
  H     -106.814     810.222    -432.429
  H     -107.146     809.544    -430.853

 3  4  5  6  7  8  9  10  11  12  13  23  27  28  29  30  32 0
 6-311+G(2d,p)
 ****
 34  35 0
 6-311+G(2d,p)
 ****
 1  2  14  15  16  17  18  19  20  21  22  24  25  26 0
 3-21G
 ****
 31  33  36  37  38  39  40  41  42  43  44  45  46 0
 3-21G
 ****


