%nproc=1
%NoSave
%Mem=1900MB
#P OB98/GEN NMR

erre ene a

0 1
  C     -313.968      78.527    -395.449
  O     -314.355      79.796    -394.959
  P     -314.176      81.110    -395.854
  C     -311.966      81.578    -394.651
  O     -312.608      81.449    -395.911
  C     -310.483      81.914    -394.815
  O     -309.904      82.157    -393.502
  C     -309.646      80.815    -395.489
  O     -308.634      81.478    -396.254
  C     -309.009      80.106    -394.305
  O     -307.847      79.372    -394.663
  C     -308.752      81.295    -393.385
  N     -305.739      81.656    -389.271
  C     -305.604      82.130    -390.528
  N     -306.440      81.968    -391.574
  C     -307.506      81.235    -391.220
  C     -307.767      80.660    -389.989
  C     -306.828      80.909    -388.970
  N     -306.966      80.462    -387.675
  N     -308.940      79.927    -390.037
  C     -309.376      80.062    -391.272
  N     -308.576      80.898    -392.005
  O     -315.047      82.264    -395.476
  O     -314.496      80.612    -397.341
  H     -307.457      78.995    -393.853
  H     -315.371      80.940    -397.620
  H     -304.710      82.720    -390.714
  H     -310.253      79.586    -391.686
  H     -307.867      81.868    -393.686
  H     -309.732      79.411    -393.863
  H     -310.231      80.140    -396.122
  H     -310.405      82.854    -395.377
  H     -312.062      80.626    -394.121
  H     -306.309      80.811    -386.996
  H     -307.881      80.140    -387.362
  H     -312.463      82.354    -394.059
  P     -308.611      81.328    -397.849
  C     -307.106      79.271    -397.611
  O     -308.306      79.787    -398.157
  O     -307.749      82.308    -398.571
  O     -310.154      81.480    -398.261
  H     -310.219      81.681    -399.215
  H     -306.265      79.559    -398.248
  H     -307.171      78.179    -397.574
  H     -306.933      79.652    -396.597
  H     -314.167      77.782    -394.707
  H     -312.922      78.536    -395.675
  H     -314.523      78.303    -396.336

 3  4  5  6  7  8  9  10  11  12  22  25  29  30  31  32 0
 6-311+G(2d,p)
 ****
 33  36  37 0
 6-311+G(2d,p)
 ****
 1  2  13  14  15  16  17  18  19  20  21  23  24  26 0
 3-21G
 ****
 27  28  34  35  38  39  40  41  42  43  44  45  46  47  48 0
 3-21G
 ****


