%nproc=1
%NoSave
%Mem=1900MB
#P OB98/GEN NMR

erre ene a

0 1
  C      -77.158      62.235    -209.351
  O      -75.796      61.987    -209.635
  H      -77.695      61.283    -209.344
  H      -77.594      62.878    -210.119
  H      -77.258      62.705    -208.370
  P      -74.836      63.267    -209.749
  C      -73.234      62.893    -207.739
  O      -74.346      63.608    -208.262
  C      -72.301      63.858    -207.017
  O      -71.929      64.940    -207.903
  C      -72.919      64.527    -205.798
  O      -72.937      63.674    -204.668
  C      -71.991      65.718    -205.622
  O      -70.810      65.362    -204.885
  C      -71.645      66.088    -207.081
  N      -72.361      67.277    -207.532
  C      -71.791      68.495    -207.175
  O      -70.752      68.588    -206.521
  N      -72.480      69.612    -207.563
  C      -73.672      69.628    -208.223
  O      -74.275      70.664    -208.478
  C      -74.219      68.309    -208.588
  C      -73.554      67.211    -208.222
  O      -75.854      64.453    -210.098
  O      -73.742      63.148    -210.758
  H      -75.800      64.668    -211.047
  H      -70.197      64.961    -205.531
  H      -72.089      70.505    -207.304
  H      -75.163      68.286    -209.118
  H      -73.948      66.228    -208.460
  H      -70.568      66.286    -207.176
  H      -72.475      66.525    -205.072
  H      -73.924      64.895    -206.037
  H      -71.386      63.315    -206.738
  H      -72.689      62.415    -208.560
  H      -73.598      62.118    -207.058
  P      -73.965      63.998    -203.481
  C      -76.279      63.498    -204.620
  O      -75.336      64.457    -204.176
  O      -73.349      65.355    -202.900
  O      -74.103      62.893    -202.490
  H      -72.966      65.924    -203.590
  H      -77.120      63.998    -205.052
  H      -76.604      62.906    -203.790
  H      -75.825      62.865    -205.353

 6  7  8  9  10  11  12  13  14  15  16  27  31  32  33  34  35 0
 6-311+G(2d,p)
 ****
 36  37 0
 6-311+G(2d,p)
 ****
 1  2  3  4  5  17  18  19  20  21  22  23  24  25 0
 3-21G
 ****
 26  28  29  30  38  39  40  41  42  43  44  45 0
 3-21G
 ****


