%nproc=1
%NoSave
%Mem=1900MB
#P OB98/GEN NMR

erre ene a

0 1
  C       37.271     217.501    -130.855
  O       38.178     218.290    -131.598
  H       36.906     216.692    -131.491
  H       36.422     218.114    -130.543
  H       37.761     217.066    -129.978
  P       39.081     219.329    -130.770
  C       38.648     221.578    -129.550
  O       38.128     220.568    -130.401
  C       37.555     222.579    -129.189
  O       36.491     221.927    -128.467
  C       38.026     223.733    -128.308
  O       38.621     224.770    -129.079
  C       36.703     224.190    -127.711
  O       35.971     224.962    -128.686
  C       35.991     222.852    -127.461
  N       34.133     222.329    -122.770
  C       33.640     223.047    -123.843
  N       32.491     223.726    -123.634
  N       34.218     223.096    -125.015
  C       35.373     222.387    -125.071
  C       35.965     221.644    -124.075
  C       35.306     221.584    -122.791
  O       35.696     220.954    -121.811
  N       37.130     221.065    -124.504
  C       37.254     221.475    -125.750
  N       36.213     222.282    -126.143
  O       40.058     219.919    -131.896
  O       39.853     218.738    -129.638
  H       36.573     225.653    -129.015
  H       40.933     219.496    -131.808
  H       33.653     222.333    -121.888
  H       38.068     221.213    -126.414
  H       34.907     222.929    -127.595
  H       36.835     224.826    -126.835
  H       32.007     223.750    -122.751
  H       38.692     223.389    -127.508
  H       32.110     224.256    -124.410
  H       37.127     222.960    -130.127
  H       39.462     222.096    -130.067
  H       39.041     221.109    -128.641
  P       39.830     225.600    -128.427
  C       40.022     227.617    -126.806
  O       39.174     226.839    -127.639
  O       40.511     226.286    -129.703
  O       40.814     224.793    -127.653
  H       41.394     225.897    -129.858
  H       39.453     228.400    -126.350
  H       40.807     228.043    -127.395
  H       40.445     226.994    -126.046

 6  7  8  9  10  11  12  13  14  15  26  29  33  34 0
 6-311+G(2d,p)
 ****
 36  38  39  40  41 0
 6-311+G(2d,p)
 ****
 1  2  3  4  5  16  17  18  19  20  21  22  23  24  25 0
 3-21G
 ****
 27  28  30  31  32  35  37  42  43  44  45  46  47 0
 3-21G
 ****
 48  49 0
 3-21G
 ****


