%nproc=1
%NoSave
%Mem=1900MB
#P OB98/GEN NMR

erre ene a

0 1
  C     -271.648     189.151       1.286
  O     -272.903     189.153       1.932
  H     -271.664     189.824       0.423
  H     -270.888     189.498       1.992
  H     -271.393     188.137       0.963
  P     -274.173     188.773       1.027
  C     -275.165     191.164       1.151
  O     -274.650     190.134       0.321
  C     -276.432     191.751       0.539
  O     -276.235     192.000      -0.868
  C     -277.656     190.847       0.620
  O     -278.258     190.878       1.908
  C     -278.549     191.489      -0.433
  O     -279.204     192.644       0.126
  C     -277.539     191.925      -1.504
  N     -278.772     191.182      -6.433
  C     -279.006     192.214      -5.591
  N     -278.661     192.338      -4.295
  C     -277.986     191.255      -3.874
  C     -277.673     190.127      -4.617
  C     -278.100     190.110      -5.957
  N     -277.870     189.045      -6.803
  N     -276.959     189.226      -3.859
  C     -276.844     189.795      -2.674
  N     -277.455     191.021      -2.635
  O     -275.330     188.490       2.102
  O     -273.980     187.609       0.113
  H     -279.525     192.379       1.011
  H     -275.897     187.769       1.773
  H     -279.545     193.057      -6.021
  H     -276.326     189.361      -1.827
  H     -277.765     192.927      -1.887
  H     -279.329     190.818      -0.802
  H     -277.416     189.822       0.314
  H     -276.627     192.715       1.026
  H     -274.416     191.958       1.254
  H     -278.023     189.170      -7.786
  H     -277.359     188.248      -6.434
  H     -275.378     190.747       2.142
  P     -278.964     189.533       2.428
  C     -281.286     190.615       2.021
  O     -280.417     189.519       1.754
  O     -279.272     189.859       3.964
  O     -278.148     188.294       2.276
  H     -279.327     189.028       4.477
  H     -282.213     190.468       1.507
  H     -280.830     191.522       1.683
  H     -281.467     190.678       3.074

 6  7  8  9  10  11  12  13  14  15  25  28  32  33  34  35 0
 6-311+G(2d,p)
 ****
 36  39  40 0
 6-311+G(2d,p)
 ****
 1  2  3  4  5  16  17  18  19  20  21  22  23  24 0
 3-21G
 ****
 26  27  29  30  31  37  38  41  42  43  44  45  46  47  48 0
 3-21G
 ****


