%nproc=1
%NoSave
%Mem=1900MB
#P OB98/GEN NMR

erre ene a

0 1
  C     -513.551    -821.957     326.844
  O     -512.438    -822.639     327.412
  P     -511.836    -822.064     328.789
  C     -509.439    -822.180     327.785
  O     -510.445    -821.367     328.395
  C     -508.086    -821.464     327.807
  O     -508.124    -820.314     326.921
  C     -507.688    -820.910     329.155
  O     -507.086    -821.913     329.984
  C     -506.640    -819.877     328.747
  O     -505.397    -820.534     328.460
  C     -507.236    -819.301     327.475
  N     -506.877    -814.227     328.084
  C     -505.923    -815.189     327.950
  N     -506.116    -816.527     327.799
  C     -507.423    -816.838     327.836
  C     -508.490    -815.978     328.004
  C     -508.182    -814.602     328.116
  N     -509.149    -813.617     328.219
  N     -509.681    -816.645     327.980
  C     -509.337    -817.929     327.803
  N     -507.984    -818.082     327.695
  O     -511.376    -823.393     329.565
  O     -512.782    -821.235     329.599
  H     -504.766    -819.836     328.163
  H     -511.351    -823.228     330.512
  H     -504.905    -814.851     327.955
  H     -510.044    -818.744     327.739
  H     -506.464    -819.090     326.715
  H     -506.432    -819.140     329.538
  H     -508.515    -820.403     329.660
  H     -507.315    -822.154     327.414
  H     -509.722    -822.382     326.746
  H     -508.849    -812.667     328.111
  H     -510.111    -813.875     328.039
  H     -509.366    -823.127     328.329
  P     -506.368    -821.403     331.317
  C     -504.160    -822.568     330.604
  O     -504.810    -821.355     330.977
  O     -506.506    -822.656     332.305
  O     -506.949    -820.150     331.911
  H     -506.480    -822.367     333.242
  H     -503.208    -822.316     330.096
  H     -504.775    -823.151     329.911
  H     -503.934    -823.162     331.492
  H     -513.844    -822.445     325.938
  H     -513.278    -820.944     326.632
  H     -514.367    -821.969     327.536

 3  4  5  6  7  8  9  10  11  12  22  25  29  30  31  32 0
 6-311+G(2d,p)
 ****
 33  36  37 0
 6-311+G(2d,p)
 ****
 1  2  13  14  15  16  17  18  19  20  21  23  24  26 0
 3-21G
 ****
 27  28  34  35  38  39  40  41  42  43  44  45  46  47  48 0
 3-21G
 ****


