%nproc=1
%NoSave
%Mem=1900MB
#P OB98/GEN NMR

erre ene a

0 1
  C      324.801    -819.483     -63.726
  O      323.551    -818.835     -63.482
  P      322.463    -819.338     -62.429
  C      322.499    -817.128     -61.027
  O      322.679    -818.531     -61.065
  C      323.776    -816.367     -60.613
  O      324.747    -816.441     -61.692
  C      323.473    -814.886     -60.406
  O      322.949    -814.437     -59.170
  C      324.744    -814.170     -60.838
  O      325.620    -813.905     -59.744
  C      325.391    -815.161     -61.814
  N      327.978    -813.460     -65.892
  C      328.440    -813.748     -64.628
  N      329.745    -813.514     -64.391
  N      327.687    -814.213     -63.664
  C      326.379    -814.320     -64.003
  C      325.796    -814.051     -65.226
  C      326.653    -813.587     -66.296
  O      326.296    -813.333     -67.438
  N      324.442    -814.260     -65.189
  C      324.204    -814.635     -63.952
  N      325.346    -814.694     -63.193
  O      322.303    -820.823     -62.329
  O      321.080    -818.739     -63.008
  H      326.483    -813.623     -60.100
  H      320.382    -819.383     -62.778
  H      328.603    -813.125     -66.600
  H      323.227    -814.877     -63.550
  H      326.452    -815.312     -61.569
  H      324.505    -813.196     -61.290
  H      330.353    -813.042     -65.044
  H      322.716    -814.605     -61.152
  H      330.041    -813.513     -63.408
  H      324.248    -816.841     -59.746
  H      321.694    -816.931     -60.315
  H      322.151    -816.765     -61.991
  P      321.431    -814.019     -58.882
  C      320.967    -815.267     -56.688
  O      320.730    -815.220     -58.089
  O      320.726    -814.086     -60.320
  O      321.259    -812.663     -58.265
  H      319.877    -813.597     -60.303
  H      320.709    -816.260     -56.318
  H      320.340    -814.529     -56.182
  H      322.027    -815.065     -56.460
  H      325.341    -818.945     -64.476
  H      324.625    -820.483     -64.062
  H      325.373    -819.506     -62.822

 3  4  5  6  7  8  9  10  11  12  23  26  30  31 0
 6-311+G(2d,p)
 ****
 33  35  36  37  38 0
 6-311+G(2d,p)
 ****
 1  2  13  14  15  16  17  18  19  20  21  22  24  25 0
 3-21G
 ****
 27  28  29  32  34  39  40  41  42  43  44  45  46  47  48  49 0
 3-21G
 ****


