%nproc=1
%NoSave
%Mem=1900MB
#P OB98/GEN NMR

erre ene a

0 1
  C      222.554      91.387    -108.676
  O      221.321      91.089    -109.317
  P      221.310      91.034    -110.922
  C      221.526      92.889    -112.775
  O      221.303      92.559    -111.412
  C      221.559      94.411    -112.951
  O      220.245      94.962    -112.709
  C      222.493      95.141    -111.993
  O      223.848      95.024    -112.381
  C      221.930      96.558    -112.058
  O      222.408      97.231    -113.234
  C      220.413      96.296    -112.179
  N      219.698      96.452    -110.907
  C      218.598      97.306    -110.927
  O      218.229      97.909    -111.935
  N      217.948      97.466    -109.730
  C      218.314      96.914    -108.534
  O      217.720      97.124    -107.482
  C      219.502      96.045    -108.572
  C      220.129      95.857    -109.740
  O      219.820      90.511    -111.185
  O      222.391      90.174    -111.488
  H      219.217      90.766    -110.465
  H      222.345      96.589    -113.968
  H      217.131      98.062    -109.721
  H      219.831      95.598    -107.644
  H      221.011      95.228    -109.786
  H      219.967      96.973    -112.915
  H      222.215      97.169    -111.191
  H      222.365      94.744    -110.979
  H      221.830      94.631    -113.996
  H      220.723      92.465    -113.384
  H      222.477      92.446    -113.101
  P      224.927      94.844    -111.195
  C      225.414      96.148    -108.981
  O      224.696      96.074    -110.197
  O      226.291      95.205    -111.958
  O      224.905      93.488    -110.567
  H      226.203      95.972    -112.552
  H      225.398      97.182    -108.629
  H      226.454      95.835    -109.115
  H      224.933      95.513    -108.232
  H      222.413      91.390    -107.615
  H      222.897      92.350    -108.993
  H      223.280      90.646    -108.937

 3  4  5  6  7  8  9  10  11  12  13  24  28  29  30  31  32 0
 6-311+G(2d,p)
 ****
 33  34 0
 6-311+G(2d,p)
 ****
 1  2  14  15  16  17  18  19  20  21  22  23  25  26  27 0
 3-21G
 ****
 35  36  37  38  39  40  41  42  43  44  45 0
 3-21G
 ****


