%nproc=1
%NoSave
%Mem=1900MB
#P OB98/GEN NMR

erre ene a

0 1
  C       99.036     386.680     468.660
  O       99.002     388.049     468.232
  P       98.035     389.134     468.904
  C       95.723     388.465     467.970
  O       96.578     388.472     469.107
  C       94.320     387.966     468.314
  O       94.361     386.616     468.832
  C       93.602     388.796     469.387
  O       93.079     389.982     468.826
  C       92.556     387.806     469.879
  O       91.427     387.769     468.994
  C       93.328     386.470     469.816
  N       94.091     382.576     473.045
  C       93.523     382.635     471.817
  N       93.340     383.715     471.024
  C       93.869     384.813     471.602
  C       94.482     384.908     472.835
  C       94.588     383.712     473.577
  N       95.160     383.649     474.831
  N       94.873     386.195     473.103
  C       94.505     386.874     472.026
  N       93.900     386.081     471.095
  O       98.002     390.449     468.205
  O       98.579     389.294     470.400
  H       91.710     387.313     468.180
  H       98.371     390.190     470.729
  H       93.142     381.692     471.427
  H       94.668     387.940     471.886
  H       92.687     385.647     469.481
  H       92.180     388.048     470.885
  H       94.297     389.035     470.197
  H       93.726     387.955     467.399
  H       96.164     387.808     467.207
  H       95.168     382.767     475.312
  H       95.488     384.508     475.262
  H       95.669     389.482     467.565
  P       93.927     391.338     468.872
  C       92.500     392.749     470.469
  O       93.685     391.998     470.322
  O       93.742     392.265     467.715
  O       95.447     390.833     468.975
  H       96.036     391.489     468.553
  H       92.639     393.746     470.037
  H       92.278     392.855     471.533
  H       91.654     392.260     469.986
  H       99.751     386.141     468.074
  H       98.068     386.242     468.533
  H       99.315     386.636     469.692

 3  4  5  6  7  8  9  10  11  12  22  25  29  30  31  32 0
 6-311+G(2d,p)
 ****
 33  36  37 0
 6-311+G(2d,p)
 ****
 1  2  13  14  15  16  17  18  19  20  21  23  24  26 0
 3-21G
 ****
 27  28  34  35  38  39  40  41  42  43  44  45  46  47  48 0
 3-21G
 ****


