%nproc=1
%NoSave
%Mem=1900MB
#P OB98/GEN NMR

erre ene a

0 1
  C      386.460     271.778    -377.396
  O      386.760     272.687    -376.341
  P      386.237     274.197    -376.498
  C      385.554     275.989    -374.747
  O      385.658     274.604    -375.058
  C      384.493     276.223    -373.679
  O      383.199     275.894    -374.201
  C      384.658     275.366    -372.430
  O      385.628     275.907    -371.541
  C      383.261     275.452    -371.833
  O      383.122     276.682    -371.095
  C      382.367     275.478    -373.084
  N      378.336     272.472    -372.452
  C      378.577     273.753    -371.979
  N      377.586     274.318    -371.256
  N      379.684     274.410    -372.192
  C      380.566     273.735    -372.964
  C      380.446     272.466    -373.490
  C      379.239     271.728    -373.207
  O      379.001     270.575    -373.543
  N      381.550     272.129    -374.235
  C      382.317     273.202    -374.195
  N      381.779     274.194    -373.405
  O      384.915     274.033    -377.390
  O      387.210     275.146    -377.113
  H      383.570     276.549    -370.238
  H      384.737     274.863    -377.877
  H      377.464     272.021    -372.276
  H      383.262     273.306    -374.709
  H      381.562     276.215    -372.985
  H      383.042     274.636    -371.137
  H      376.666     273.912    -371.167
  H      384.887     274.323    -372.691
  H      377.728     275.266    -370.927
  H      384.499     277.288    -373.421
  H      385.273     276.544    -375.653
  H      386.534     276.352    -374.410
  P      385.549     275.420    -370.011
  C      387.337     275.049    -368.161
  O      387.037     275.566    -369.445
  O      385.335     273.840    -370.139
  O      384.470     276.079    -369.212
  H      384.877     273.495    -369.348
  H      386.789     274.124    -367.964
  H      387.082     275.788    -367.401
  H      388.408     274.840    -368.104
  H      386.865     270.815    -377.163
  H      386.891     272.135    -378.308
  H      385.399     271.701    -377.510

 3  4  5  6  7  8  9  10  11  12  23  26  30  31  33  0
 6-311+G(2d,p)
 ****
 35  36  37  38 0
 6-311+G(2d,p)
 ****
 1  2  13  14  15  16  17  18  19  20  21  22  24  25  27  28  29 0
 3-21G
 ****
 32  34  39  40  41  42  43  44  45  46  47  48  49 0
 3-21G
 ****


