%nproc=1
%NoSave
%Mem=1900MB
#P OB98/GEN NMR

erre ene a

0 1
  C     -140.114      38.930    -152.391
  O     -141.386      39.066    -153.030
  P     -142.675      39.151    -152.075
  C     -143.511      41.456    -152.912
  O     -143.780      40.065    -152.799
  C     -144.766      42.237    -153.321
  O     -145.066      42.033    -154.731
  C     -146.020      41.839    -152.537
  O     -146.831      43.011    -152.387
  C     -146.723      40.880    -153.478
  O     -148.102      40.738    -153.151
  C     -146.423      41.546    -154.819
  N     -149.478      38.055    -156.952
  C     -149.605      38.807    -155.839
  N     -148.731      39.702    -155.325
  C     -147.650      39.811    -156.116
  C     -147.375      39.103    -157.274
  C     -148.351      38.182    -157.694
  N     -148.211      37.395    -158.813
  N     -146.139      39.458    -157.780
  C     -145.677      40.360    -156.936
  N     -146.565      40.629    -155.934
  O     -142.168      40.061    -150.860
  O     -143.160      37.823    -151.598
  H     -148.444      39.940    -153.606
  H     -142.047      39.513    -150.063
  H     -150.529      38.671    -155.282
  H     -144.712      40.839    -157.000
  H     -147.083      42.400    -155.019
  H     -146.252      39.890    -153.419
  H     -145.825      41.395    -151.556
  H     -144.567      43.306    -153.180
  H     -142.726      41.626    -153.655
  H     -148.944      36.738    -159.029
  H     -147.357      37.446    -159.347
  H     -143.107      41.821    -151.962
  P     -147.189      43.445    -150.887
  C     -146.420      45.912    -151.118
  O     -147.500      45.016    -150.938
  O     -145.787      43.359    -150.120
  O     -148.236      42.598    -150.239
  H     -145.932      43.205    -149.168
  H     -146.733      46.710    -151.800
  H     -145.537      45.419    -151.536
  H     -146.157      46.353    -150.153
  H     -139.345      38.885    -153.133
  H     -140.101      38.032    -151.809
  H     -139.944      39.771    -151.752

 3  4  5  6  7  8  9  10  11  12  22  25  29  30  31  32 0
 6-311+G(2d,p)
 ****
 33  36  37 0
 6-311+G(2d,p)
 ****
 1  2  13  14  15  16  17  18  19  20  21  23  24  26 0
 3-21G
 ****
 27  28  34  35  38  39  40  41  42  43  44  45  46  47  48 0
 3-21G
 ****


