%nproc=1
%NoSave
%Mem=1900MB
#P OB98/GEN NMR

erre ene a

0 1
  C     -624.632    -718.941     227.875
  O     -624.036    -717.828     227.209
  P     -624.846    -716.460     226.960
  C     -623.818    -716.503     224.609
  O     -624.092    -715.739     225.777
  C     -623.512    -715.577     223.432
  O     -624.711    -714.860     223.071
  C     -622.440    -714.540     223.691
  O     -621.143    -715.115     223.665
  C     -622.744    -713.533     222.594
  O     -622.203    -713.953     221.345
  C     -624.289    -713.560     222.512
  N     -624.919    -712.480     223.245
  C     -625.178    -711.320     222.523
  O     -624.893    -711.233     221.306
  N     -625.809    -710.258     223.138
  C     -626.114    -710.325     224.386
  N     -626.772    -709.281     224.959
  C     -625.800    -711.530     225.225
  C     -625.219    -712.542     224.596
  O     -625.045    -715.633     228.192
  O     -626.202    -716.935     226.281
  H     -621.255    -714.117     221.473
  H     -626.914    -717.159     226.935
  H     -626.078    -711.527     226.282
  H     -625.003    -713.459     225.120
  H     -624.623    -713.546     221.477
  H     -622.347    -712.525     222.811
  H     -622.615    -714.070     224.679
  H     -623.242    -716.215     222.551
  H     -627.116    -708.585     224.303
  H     -624.719    -717.108     224.375
  H     -627.311    -709.401     225.809
  H     -622.992    -717.181     224.797
  P     -620.497    -715.517     225.071
  C     -618.314    -714.105     225.154
  O     -618.896    -715.365     224.873
  O     -620.721    -717.113     225.140
  O     -621.071    -714.812     226.263
  H     -621.488    -717.314     225.715
  H     -617.239    -714.224     225.211
  H     -618.683    -713.710     226.112
  H     -618.565    -713.399     224.337
  H     -623.925    -719.742     227.935
  H     -625.492    -719.265     227.328
  H     -624.926    -718.650     228.862

 3  4  5  6  7  8  9  10  11  12  13  23  27  28  29  30  32 0
 6-311+G(2d,p)
 ****
 34  35 0
 6-311+G(2d,p)
 ****
 1  2  14  15  16  17  18  19  20  21  22  24  25  26 0
 3-21G
 ****
 31  33  36  37  38  39  40  41  42  43  44  45  46 0
 3-21G
 ****


