%nproc=1
%NoSave
%Mem=1900MB
#P OB98/GEN NMR

erre ene a

0 1
  C      -14.290    -378.305      -7.092
  O      -13.041    -378.934      -7.300
  H      -14.824    -378.840      -6.302
  H      -14.895    -378.326      -8.002
  H      -14.139    -377.269      -6.772
  P      -12.178    -378.495      -8.582
  C      -11.353    -376.390      -7.334
  O      -12.037    -376.897      -8.478
  C       -9.880    -376.124      -7.652
  O       -9.768    -375.120      -8.681
  C       -9.088    -375.578      -6.474
  O       -8.885    -376.509      -5.433
  C       -7.887    -374.937      -7.156
  O       -6.825    -375.852      -7.411
  C       -8.499    -374.460      -8.496
  N       -8.628    -373.008      -8.551
  C       -7.434    -372.297      -8.612
  O       -6.325    -372.830      -8.598
  N       -7.553    -370.935      -8.647
  C       -8.722    -370.234      -8.577
  O       -8.759    -369.009      -8.571
  C       -9.950    -371.041      -8.488
  C       -9.848    -372.372      -8.480
  O      -12.691    -378.972      -9.907
  O      -10.703    -379.010      -8.241
  H       -7.223    -376.649      -7.810
  H      -10.141    -379.040      -9.051
  H       -6.701    -370.402      -8.702
  H      -10.894    -370.517      -8.428
  H      -10.741    -372.990      -8.412
  H       -7.863    -374.772      -9.335
  H       -7.473    -374.125      -6.554
  H       -9.662    -374.755      -6.032
  H       -9.436    -377.052      -8.031
  H      -11.420    -377.146      -6.544
  H      -11.842    -375.474      -6.989
  P       -8.576    -376.085      -3.924
  C      -10.804    -377.035      -2.983
  O       -9.977    -375.890      -3.161
  O       -7.501    -375.068      -3.718
  O       -8.046    -377.478      -3.307
  H       -7.362    -377.264      -2.644
  H      -11.696    -376.753      -2.463
  H      -10.276    -377.771      -2.413
  H      -11.061    -377.441      -3.939

 6  7  8  9  10  11  12  13  14  15  16  26  31  32  33  34  35 0
 6-311+G(2d,p)
 ****
 36  37 0
 6-311+G(2d,p)
 ****
 1  2  3  4  5  17  18  19  20  21  22  23  24  25 0
 3-21G
 ****
 27  28  29  30  38  39  40  41  42  43  44  45 0
 3-21G
 ****


