%nproc=1
%NoSave
%Mem=1900MB
#P OB98/GEN NMR

erre ene a

0 1
  C       84.292     -14.807      87.411
  O       84.976     -13.593      87.192
  H       83.330     -14.763      86.892
  H       84.109     -14.938      88.481
  H       84.858     -15.659      87.028
  P       86.554     -13.541      87.449
  C       86.569     -11.265      88.663
  O       86.988     -11.997      87.519
  C       87.026      -9.807      88.607
  O       88.469      -9.736      88.607
  C       86.569      -9.104      87.328
  O       85.255      -8.578      87.363
  C       87.602      -7.988      87.200
  O       87.216      -6.841      87.975
  C       88.865      -8.627      87.780
  N       93.724      -9.149      86.293
  C       93.224      -8.549      87.432
  N       94.129      -7.964      88.246
  N       91.951      -8.514      87.727
  C       91.157      -9.054      86.774
  C       91.536      -9.664      85.599
  C       92.953      -9.747      85.307
  O       93.448     -10.261      84.309
  N       90.447     -10.098      84.882
  C       89.412      -9.685      85.585
  N       89.792      -9.069      86.755
  O       87.179     -14.013      86.049
  O       87.048     -14.398      88.575
  H       87.833      -6.114      87.777
  H       88.056     -14.410      86.194
  H       94.715      -9.171      86.130
  H       88.373      -9.827      85.308
  H       89.409      -7.926      88.425
  H       87.705      -7.649      86.165
  H       95.102      -7.865      88.002
  H       86.676      -9.771      86.468
  H       93.787      -7.295      88.937
  H       86.676      -9.284      89.504
  H       87.008     -11.760      89.531
  H       85.483     -11.321      88.772
  P       84.081      -9.299      86.547
  C       84.262      -7.726      84.482
  O       83.470      -8.208      85.546
  O       82.941      -9.481      87.655
  O       84.458     -10.595      85.918
  H       82.982     -10.378      88.036
  H       83.703      -7.010      83.917
  H       84.541      -8.541      83.847
  H       85.143      -7.262      84.875

 6  7  8  9  10  11  12  13  14  15  26  29  33  34 0
 6-311+G(2d,p)
 ****
 36  38  39  40  41 0
 6-311+G(2d,p)
 ****
 1  2  3  4  5  16  17  18  19  20  21  22  23  24  25 0
 3-21G
 ****
 27  28  30  31  32  35  37  42  43  44  45  46  47 0
 3-21G
 ****
 48  49 0
 3-21G
 ****


