%nproc=1
%NoSave
%Mem=1900MB
#P OB98/GEN NMR

erre ene a

0 1
  C      117.268      -2.558      67.439
  O      117.077      -3.297      68.634
  P      115.706      -3.199      69.449
  C      114.430      -4.805      67.811
  O      114.506      -3.556      68.461
  C      112.955      -5.197      67.658
  O      112.392      -5.522      68.945
  C      112.132      -4.061      67.056
  O      112.020      -4.216      65.650
  C      110.808      -4.189      67.785
  O      109.997      -5.213      67.181
  C      111.271      -4.632      69.194
  N      111.715      -3.590      70.139
  C      110.859      -2.541      70.460
  O      109.718      -2.433      70.022
  N      111.378      -1.586      71.298
  C      112.620      -1.611      71.864
  O      113.154      -0.651      72.406
  C      113.361      -2.866      71.706
  C      112.895      -3.772      70.848
  O      115.537      -1.626      69.683
  O      115.665      -3.964      70.731
  H      110.538      -6.023      67.145
  H      115.835      -1.377      70.578
  H      110.813      -0.752      71.423
  H      114.287      -2.986      72.251
  H      113.448      -4.694      70.685
  H      110.490      -5.213      69.698
  H      110.232      -3.268      67.721
  H      112.580      -3.092      67.309
  H      112.890      -6.092      67.026
  H      114.969      -5.563      68.389
  H      114.909      -4.747      66.828
  P      111.512      -2.989      64.758
  C      113.643      -1.636      65.202
  O      112.241      -1.696      65.366
  O      110.032      -2.876      64.601
  O      112.243      -3.229      63.353
  H      111.630      -3.673      62.731
  H      113.989      -0.641      65.491
  H      113.917      -1.820      64.159
  H      114.121      -2.378      65.848
  H      118.243      -2.759      67.048
  H      117.176      -1.513      67.648
  H      116.529      -2.845      66.720

 3  4  5  6  7  8  9  10  11  12  13  23  28  29  30  31  32 0
 6-311+G(2d,p)
 ****
 33  34 0
 6-311+G(2d,p)
 ****
 1  2  14  15  16  17  18  19  20  21  22  24  25  26  27 0
 3-21G
 ****
 35  36  37  38  39  40  41  42  43  44  45 0
 3-21G
 ****


