%nproc=1
%NoSave
%Mem=1900MB
#P OB98/GEN NMR

erre ene a

0 1
  C      126.566    -888.710    -325.751
  O      126.494    -890.130    -325.852
  P      125.487    -890.920    -326.806
  C      127.525    -891.430    -328.369
  O      126.166    -891.040    -328.247
  C      127.736    -892.630    -329.321
  O      127.094    -893.790    -328.762
  C      127.095    -892.370    -330.675
  O      127.747    -891.610    -331.667
  C      126.621    -893.740    -331.143
  O      127.573    -894.360    -331.999
  C      126.479    -894.520    -329.825
  N      122.650    -897.940    -329.665
  C      123.943    -898.090    -330.157
  N      124.249    -899.280    -330.718
  N      124.856    -897.150    -330.103
  C      124.375    -895.970    -329.591
  C      123.135    -895.690    -329.101
  C      122.149    -896.780    -329.076
  O      121.017    -896.690    -328.657
  N      123.021    -894.380    -328.686
  C      124.224    -893.870    -328.964
  N      125.089    -894.800    -329.512
  O      124.064    -890.480    -326.770
  O      125.546    -892.440    -326.237
  H      127.280    -895.290    -332.140
  H      124.639    -892.820    -326.374
  H      122.011    -898.700    -329.682
  H      124.492    -892.840    -328.765
  H      126.967    -895.480    -329.893
  H      125.692    -893.650    -331.730
  H      123.576    -900.000    -330.895
  H      126.150    -891.780    -330.485
  H      125.092    -899.340    -331.276
  H      128.820    -892.870    -329.389
  H      127.887    -891.650    -327.361
  H      128.126    -890.550    -328.721
  P      127.095    -890.520    -332.656
  C      128.099    -888.520    -331.423
  O      126.932    -889.160    -331.827
  O      125.582    -891.040    -332.828
  O      127.771    -890.380    -333.995
  H      125.168    -890.590    -333.610
  H      127.863    -887.800    -330.633
  H      128.544    -887.980    -332.260
  H      128.827    -889.240    -331.021
  H      127.322    -888.441    -325.043
  H      125.621    -888.327    -325.427
  H      126.810    -888.296    -326.707

 3  4  5  6  7  8  9  10  11  12  23  26  30  31 0
 6-311+G(2d,p)
 ****
 33  35  36  37  38 0
 6-311+G(2d,p)
 ****
 1  2  13  14  15  16  17  18  19  20  21  22  24  25 0
 3-21G
 ****
 27  28  29  32  34  39  40  41  42  43  44  45  46  47  48  49 0
 3-21G
 ****


