%nproc=1
%NoSave
%Mem=1900MB
#P OB98/GEN NMR

erre ene a

0 1
  C      132.542    -181.959    1024.545
  O      132.050    -181.332    1023.381
  H      132.636    -181.210    1025.340
  H      133.531    -182.382    1024.349
  H      131.864    -182.744    1024.887
  P      131.542    -182.244    1022.162
  C      129.022    -181.855    1022.571
  O      130.098    -182.804    1022.577
  C      127.893    -182.335    1021.647
  O      127.376    -183.614    1022.154
  C      126.696    -181.360    1021.563
  O      126.137    -181.495    1020.257
  C      125.762    -181.920    1022.610
  O      124.453    -181.434    1022.444
  C      125.960    -183.422    1022.395
  N      125.493    -184.214    1023.529
  C      124.188    -184.691    1023.464
  O      123.417    -184.438    1022.526
  N      123.758    -185.427    1024.537
  C      124.476    -185.678    1025.672
  O      124.028    -186.310    1026.620
  C      125.833    -185.123    1025.704
  C      126.277    -184.430    1024.650
  O      132.504    -183.296    1021.697
  O      131.198    -181.195    1020.997
  H      123.853    -181.809    1023.129
  H      131.341    -181.602    1020.128
  H      122.812    -185.778    1024.498
  H      126.428    -185.284    1026.584
  H      127.287    -184.003    1024.641
  H      125.421    -183.762    1021.494
  H      126.087    -181.638    1023.618
  H      126.988    -180.320    1021.749
  H      128.309    -182.538    1020.652
  H      129.422    -180.905    1022.207
  H      128.645    -181.728    1023.592
  P      125.469    -180.252    1019.464
  C      127.507    -179.694    1017.963
  O      126.651    -179.244    1019.018
  O      124.348    -179.599    1020.194
  O      124.971    -180.878    1018.068
  H      124.212    -180.360    1017.747
  H      128.244    -178.946    1017.759
  H      126.925    -179.871    1017.083
  H      127.991    -180.601    1018.259

 6  7  8  9  10  11  12  13  14  15  16  26  31  32  33  34  35 0
 6-311+G(2d,p)
 ****
 36  37 0
 6-311+G(2d,p)
 ****
 1  2  3  4  5  17  18  19  20  21  22  23  24  25 0
 3-21G
 ****
 27  28  29  30  38  39  40  41  42  43  44  45 0
 3-21G
 ****


