%nproc=1
%NoSave
%Mem=1900MB
#P OB98/GEN NMR

erre ene a

0 1
  C      639.526     299.409     341.649
  O      639.351     300.775     342.076
  P      639.479     301.054     343.654
  C      637.651     302.655     344.570
  O      638.932     302.539     343.951
  C      636.964     303.983     344.204
  O      637.700     305.085     344.795
  C      636.867     304.253     342.696
  O      635.615     304.910     342.432
  C      637.976     305.282     342.466
  O      637.751     306.062     341.291
  C      637.904     306.073     343.774
  N      640.310     310.439     342.948
  C      639.011     310.077     342.619
  N      638.266     310.985     341.948
  N      638.500     308.893     342.907
  C      639.354     308.108     343.611
  C      640.640     308.362     343.998
  C      641.208     309.654     343.634
  O      642.360     310.031     343.848
  N      641.184     307.307     344.688
  C      640.220     306.394     344.705
  N      639.094     306.830     344.057
  O      641.064     301.170     343.878
  O      638.898     299.966     344.505
  H      637.801     305.449     340.522
  H      641.354     300.530     344.547
  H      640.645     311.360     342.683
  H      640.298     305.404     345.138
  H      637.039     306.753     343.784
  H      638.929     304.759     342.347
  H      638.566     311.925     341.745
  H      636.965     303.368     342.057
  H      637.301     310.741     341.735
  H      635.963     303.971     344.653
  H      637.770     302.607     345.656
  H      637.033     301.802     344.255
  P      634.404     303.961     341.933
  C      634.531     304.531     339.397
  O      633.823     304.658     340.613
  O      633.282     304.206     343.027
  O      634.786     302.519     341.800
  H      632.702     303.421     343.101
  H      635.338     303.815     339.446
  H      634.960     305.514     339.141
  H      633.841     304.239     338.607
  H      639.419     299.351     340.586
  H      638.787     298.792     342.116
  H      640.502     299.070     341.928

 3  4  5  6  7  8  9  10  11  12  23  26  30  31  33  0
 6-311+G(2d,p)
 ****
 35  36  37  38 0
 6-311+G(2d,p)
 ****
 1  2  13  14  15  16  17  18  19  20  21  22  24  25  27  28  29 0
 3-21G
 ****
 32  34  39  40  41  42  43  44  45  46  47  48  49 0
 3-21G
 ****


