%nproc=1
%NoSave
%Mem=1900MB
#P OB98/GEN NMR

erre ene a

0 1
  C     -249.747    -113.921      51.234
  O     -249.474    -115.040      52.055
  H     -248.803    -113.425      50.993
  H     -250.393    -113.213      51.761
  H     -250.225    -114.243      50.306
  P     -250.737    -115.882      52.575
  C     -253.061    -115.218      53.524
  O     -251.708    -114.843      53.318
  C     -253.925    -113.965      53.661
  O     -253.720    -113.104      52.517
  C     -255.422    -114.244      53.695
  O     -255.855    -114.700      54.966
  C     -255.976    -112.874      53.339
  O     -256.061    -112.023      54.495
  C     -254.934    -112.343      52.332
  N     -255.414    -112.407      50.955
  C     -256.219    -111.348      50.549
  O     -256.522    -110.408      51.285
  N     -256.703    -111.420      49.270
  C     -256.497    -112.444      48.392
  O     -257.020    -112.485      47.286
  C     -255.625    -113.533      48.873
  C     -255.136    -113.469      50.115
  O     -250.123    -116.754      53.769
  O     -251.401    -116.730      51.540
  H     -249.980    -117.671      53.470
  H     -256.125    -111.108      54.151
  H     -257.298    -110.669      48.963
  H     -255.433    -114.358      48.201
  H     -254.510    -114.267      50.498
  H     -254.686    -111.298      52.558
  H     -256.983    -112.942      52.927
  H     -255.696    -114.953      52.904
  H     -253.611    -113.422      54.562
  H     -253.141    -115.807      54.445
  H     -253.395    -115.834      52.682
  P     -257.270    -115.446      55.071
  C     -259.763    -114.689      54.742
  O     -258.391    -114.342      54.749
  O     -257.386    -115.670      56.651
  O     -257.356    -116.687      54.246
  H     -257.003    -114.940      57.167
  H     -260.348    -113.824      54.508
  H     -260.042    -115.059      55.706
  H     -259.936    -115.446      54.006

 6  7  8  9  10  11  12  13  14  15  16  27  31  32  33  34  35 0
 6-311+G(2d,p)
 ****
 36  37 0
 6-311+G(2d,p)
 ****
 1  2  3  4  5  17  18  19  20  21  22  23  24  25 0
 3-21G
 ****
 26  28  29  30  38  39  40  41  42  43  44  45 0
 3-21G
 ****


