%nproc=1
%NoSave
%Mem=1900MB
#P OB98/GEN NMR

erre ene a

0 1
  C     -114.695    -180.219     395.103
  O     -113.929    -179.495     394.144
  P     -114.297    -177.944     393.920
  C     -115.444    -177.531     391.620
  O     -115.603    -177.947     392.976
  C     -115.213    -178.731     390.713
  O     -116.389    -179.575     390.695
  C     -114.944    -178.381     389.254
  O     -113.589    -178.029     389.029
  C     -115.257    -179.712     388.577
  O     -114.152    -180.621     388.728
  C     -116.462    -180.207     389.385
  N     -120.909    -182.130     387.735
  C     -119.799    -182.727     388.238
  N     -118.645    -182.141     388.640
  C     -118.695    -180.812     388.458
  C     -119.740    -180.076     387.921
  C     -120.900    -180.787     387.557
  N     -122.032    -180.180     387.073
  N     -119.425    -178.737     387.877
  C     -118.212    -178.656     388.393
  N     -117.736    -179.888     388.771
  O     -113.132    -177.433     392.947
  O     -114.397    -177.128     395.166
  H     -114.244    -181.300     388.022
  H     -113.036    -176.469     393.031
  H     -119.842    -183.808     388.331
  H     -117.654    -177.740     388.529
  H     -116.439    -181.291     389.547
  H     -115.435    -179.604     387.498
  H     -115.635    -177.610     388.892
  H     -114.385    -179.324     391.124
  H     -114.573    -176.865     391.549
  H     -122.883    -180.738     387.015
  H     -122.097    -179.169     387.138
  H     -116.332    -176.983     391.311
  P     -113.216    -177.467     387.571
  C     -111.717    -179.186     386.306
  O     -113.026    -178.759     386.646
  O     -111.728    -176.908     387.763
  O     -114.157    -176.413     387.062
  H     -111.543    -176.208     387.111
  H     -111.759    -180.210     385.959
  H     -111.044    -179.131     387.172
  H     -111.323    -178.549     385.498
  H     -114.346    -181.229     395.149
  H     -115.726    -180.211     394.816
  H     -114.589    -179.761     396.064

 3  4  5  6  7  8  9  10  11  12  22  25  29  30  31  32 0
 6-311+G(2d,p)
 ****
 33  36  37 0
 6-311+G(2d,p)
 ****
 1  2  13  14  15  16  17  18  19  20  21  23  24  26 0
 3-21G
 ****
 27  28  34  35  38  39  40  41  42  43  44  45  46  47  48 0
 3-21G
 ****


