%nproc=1
%NoSave
%Mem=1900MB
#P OB98/GEN NMR

erre ene a

0 1
  C      115.344     553.130    -262.306
  O      114.016     552.671    -262.031
  P      112.803     553.695    -262.257
  C      111.687     552.518    -264.291
  O      111.587     552.887    -262.922
  C      110.967     551.185    -264.536
  O      111.797     550.057    -264.175
  C      109.679     551.026    -263.733
  O      108.578     551.669    -264.368
  C      109.491     549.518    -263.774
  O      108.913     549.138    -265.042
  C      110.932     549.007    -263.669
  N      109.703     546.294    -259.576
  C      109.085     546.380    -260.810
  N      107.976     545.623    -260.982
  N      109.509     547.137    -261.788
  C      110.634     547.824    -261.483
  C      111.344     547.825    -260.301
  C      110.853     546.994    -259.220
  O      111.354     546.889    -258.107
  N      112.431     548.650    -260.365
  C      112.398     549.138    -261.596
  N      111.315     548.674    -262.301
  O      113.327     554.603    -263.469
  O      112.457     554.514    -261.061
  H      109.544     549.435    -265.730
  H      112.921     555.488    -263.420
  H      109.329     545.698    -258.858
  H      113.127     549.817    -262.008
  H      111.106     548.112    -264.277
  H      108.807     549.163    -262.997
  H      107.622     544.978    -260.284
  H      109.813     551.361    -262.695
  H      107.527     545.646    -261.887
  H      110.731     551.117    -265.607
  H      112.731     552.430    -264.591
  H      111.261     553.316    -264.908
  P      107.250     551.907    -263.504
  C      107.296     554.487    -263.799
  O      106.611     553.271    -264.042
  O      107.824     552.286    -262.062
  O      106.333     550.730    -263.443
  H      107.212     551.977    -261.367
  H      106.802     555.276    -264.371
  H      108.337     554.415    -264.121
  H      107.251     554.731    -262.734
  H      116.041     552.342    -262.110
  H      115.568     553.969    -261.680
  H      115.415     553.422    -263.333

 3  4  5  6  7  8  9  10  11  12  23  26  30  31 0
 6-311+G(2d,p)
 ****
 33  35  36  37  38 0
 6-311+G(2d,p)
 ****
 1  2  13  14  15  16  17  18  19  20  21  22  24  25 0
 3-21G
 ****
 27  28  29  32  34  39  40  41  42  43  44  45  46  47  48  49 0
 3-21G
 ****


