%nproc=1
%NoSave
%Mem=1900MB
#P OB98/GEN NMR

erre ene a

0 1
  C     -273.079     710.410     244.024
  O     -272.545     709.396     243.184
  P     -271.016     709.459     242.679
  C     -271.596     710.992     240.680
  O     -271.116     709.726     241.098
  C     -271.491     711.102     239.161
  O     -270.114     711.065     238.753
  C     -272.184     709.968     238.392
  O     -273.591     710.143     238.388
  C     -271.502     710.088     237.041
  O     -272.080     711.152     236.272
  C     -270.053     710.457     237.436
  N     -269.142     709.322     237.424
  C     -268.057     709.414     236.545
  O     -267.885     710.400     235.838
  N     -267.157     708.367     236.512
  C     -267.344     707.329     237.265
  N     -266.380     706.360     237.239
  C     -268.499     707.174     238.165
  C     -269.361     708.199     238.196
  O     -270.177     708.298     243.074
  O     -270.478     710.864     243.235
  H     -272.996     710.885     236.062
  H     -270.098     710.810     244.147
  H     -268.613     706.281     238.765
  H     -270.213     708.176     238.837
  H     -269.665     711.239     236.770
  H     -271.545     709.166     236.445
  H     -271.936     709.007     238.851
  H     -271.917     712.084     238.864
  H     -265.525     706.586     236.746
  H     -270.974     711.770     241.131
  H     -266.290     705.686     237.993
  H     -272.630     711.124     241.017
  P     -274.499     708.885     238.798
  C     -274.560     708.160     236.297
  O     -275.300     708.477     237.453
  O     -275.603     709.521     239.750
  O     -273.749     707.774     239.443
  H     -275.389     709.336     240.689
  H     -275.232     707.686     235.571
  H     -273.755     707.462     236.534
  H     -274.153     709.076     235.856
  H     -274.102     710.187     244.246
  H     -273.020     711.355     243.525
  H     -272.517     710.452     244.934

 3  4  5  6  7  8  9  10  11  12  13  23  27  28  29  30  32 0
 6-311+G(2d,p)
 ****
 34  35 0
 6-311+G(2d,p)
 ****
 1  2  14  15  16  17  18  19  20  21  22  24  25  26 0
 3-21G
 ****
 31  33  36  37  38  39  40  41  42  43  44  45  46 0
 3-21G
 ****


