%nproc=1
%NoSave
%Mem=1900MB
#P OB98/GEN NMR

erre ene a

0 1
  C      -29.740      47.452    -137.482
  O      -30.367      47.969    -136.319
  P      -31.931      48.316    -136.404
  C      -31.391      50.810    -136.823
  O      -32.055      49.645    -137.295
  C      -32.364      51.976    -136.697
  O      -32.921      52.268    -138.008
  C      -33.541      51.718    -135.743
  O      -33.760      52.883    -134.936
  C      -34.730      51.575    -136.677
  O      -35.957      51.902    -136.034
  C      -34.322      52.533    -137.795
  N      -38.721      53.486    -140.084
  C      -38.204      54.005    -138.913
  N      -39.001      54.857    -138.230
  N      -37.018      53.717    -138.451
  C      -36.320      52.877    -139.255
  C      -36.718      52.303    -140.440
  C      -38.058      52.587    -140.908
  O      -38.607      52.089    -141.888
  N      -35.726      51.520    -140.974
  C      -34.732      51.615    -140.113
  N      -35.061      52.388    -139.028
  O      -32.267      48.816    -134.922
  O      -32.813      47.184    -136.806
  H      -36.101      51.235    -135.336
  H      -32.996      48.283    -134.551
  H      -39.648      53.730    -140.385
  H      -33.775      51.119    -140.216
  H      -34.425      53.575    -137.464
  H      -34.787      50.540    -137.031
  H      -39.911      55.151    -138.547
  H      -33.412      50.842    -135.099
  H      -38.631      55.267    -137.380
  H      -31.802      52.867    -136.386
  H      -30.595      51.080    -137.524
  H      -30.940      50.589    -135.849
  P      -34.222      52.613    -133.422
  C      -36.588      53.632    -133.810
  O      -35.818      52.496    -133.468
  O      -33.964      54.018    -132.700
  O      -33.500      51.487    -132.760
  H      -33.834      53.889    -131.741
  H      -35.967      54.457    -134.171
  H      -37.139      53.966    -132.929
  H      -37.299      53.357    -134.592
  H      -28.706      47.269    -137.278
  H      -29.827      48.161    -138.279
  H      -30.215      46.536    -137.766

 3  4  5  6  7  8  9  10  11  12  23  26  30  31  33  0
 6-311+G(2d,p)
 ****
 35  36  37  38 0
 6-311+G(2d,p)
 ****
 1  2  13  14  15  16  17  18  19  20  21  22  24  25  27  28  29 0
 3-21G
 ****
 32  34  39  40  41  42  43  44  45  46  47  48  49 0
 3-21G
 ****


