%nproc=1
%NoSave
%Mem=1900MB
#P OB98/GEN NMR

erre ene a

0 1
  C       39.292     -69.776     121.413
  O       39.208     -71.113     120.975
  P       40.435     -72.122     121.189
  C       41.600     -73.025     119.080
  O       41.420     -71.903     119.940
  C       40.406     -73.163     118.140
  O       40.063     -71.887     117.537
  C       40.650     -74.084     116.953
  O       40.844     -75.455     117.223
  C       39.490     -73.713     116.045
  O       38.289     -74.375     116.438
  C       39.378     -72.188     116.295
  N       39.909     -71.412     115.178
  C       39.042     -71.207     114.109
  O       37.892     -71.643     114.073
  N       39.553     -70.506     113.051
  C       40.832     -70.040     112.939
  O       41.234     -69.455     111.941
  C       41.704     -70.297     114.092
  C       41.215     -70.961     115.143
  O       40.055     -73.542     121.438
  O       41.256     -71.448     122.389
  H       38.311     -75.275     116.060
  H       41.585     -70.550     122.205
  H       38.946     -70.360     112.261
  H       42.720     -69.930     114.043
  H       41.842     -71.166     116.007
  H       38.327     -71.904     116.443
  H       39.685     -73.991     115.001
  H       41.570     -73.752     116.449
  H       39.542     -73.484     118.728
  H       41.682     -73.931     119.688
  H       42.537     -72.908     118.521
  P       41.691     -76.431     116.278
  C       40.515     -78.245     114.849
  O       40.766     -76.870     115.046
  O       42.490     -77.496     116.955
  O       42.702     -75.394     115.574
  H       43.541     -75.851     115.381
  H       39.908     -78.365     113.945
  H       39.963     -78.658     115.697
  H       41.453     -78.790     114.711
  H       38.380     -69.267     121.181
  H       40.107     -69.290     120.919
  H       39.453     -69.757     122.471

 3  4  5  6  7  8  9  10  11  12  13  23  28  29  30  31  32 0
 6-311+G(2d,p)
 ****
 33  34 0
 6-311+G(2d,p)
 ****
 1  2  14  15  16  17  18  19  20  21  22  24  25  26  27 0
 3-21G
 ****
 35  36  37  38  39  40  41  42  43  44  45 0
 3-21G
 ****


