%nproc=1
%NoSave
%Mem=1900MB
#P OB98/GEN NMR

erre ene a

0 1
  C      205.221    -149.280      81.214
  O      206.533    -148.875      81.547
  H      205.223    -149.660      80.189
  H      204.529    -148.437      81.275
  H      204.891    -150.082      81.881
  P      206.777    -148.172      82.966
  C      206.065    -149.166      85.244
  O      206.823    -149.345      84.057
  C      206.192    -150.389      86.162
  O      205.428    -151.487      85.589
  C      207.637    -150.883      86.340
  O      207.728    -151.475      87.642
  C      207.725    -151.944      85.261
  O      208.849    -152.769      85.439
  C      206.342    -152.588      85.393
  N      205.988    -153.395      84.237
  C      206.413    -154.725      84.258
  O      207.062    -155.155      85.212
  N      206.122    -155.528      83.185
  C      205.519    -155.028      82.153
  N      205.272    -155.872      81.116
  C      205.104    -153.612      82.066
  C      205.363    -152.861      83.135
  O      205.858    -147.044      83.298
  O      208.300    -147.682      82.896
  H      208.880    -153.472      84.751
  H      208.329    -146.717      82.761
  H      204.622    -153.239      81.174
  H      205.098    -151.809      83.164
  H      206.290    -153.221      86.289
  H      207.831    -151.481      84.276
  H      208.377    -150.086      86.235
  H      205.732    -150.152      87.129
  H      205.583    -156.832      81.214
  H      205.020    -149.027      84.950
  H      204.830    -155.592      80.254
  H      206.402    -148.271      85.776
  P      208.482    -150.770      88.869
  C      208.168    -148.349      89.702
  O      207.552    -149.612      89.468
  O      209.875    -150.328      88.552
  O      208.501    -151.872      90.032
  H      209.301    -151.747      90.576
  H      207.445    -147.668      90.100
  H      208.552    -147.964      88.781
  H      208.969    -148.467      90.401

 6  7  8  9  10  11  12  13  14  15  16  26  30  31  32  33  35 0
 6-311+G(2d,p)
 ****
 37  38 0
 6-311+G(2d,p)
 ****
 1  2  3  4  5  17  18  19  20  21  22  23  24  25 0
 3-21G
 ****
 27  28  29  34  36  39  40  41  42  43  44  45  46 0
 3-21G
 ****


