%nproc=1
%NoSave
%Mem=1900MB
#P OB98/GEN NMR

erre ene a

0 1
  C      690.366    -449.878     479.085
  O      690.049    -450.354     477.782
  P      691.253    -450.680     476.770
  C      691.973    -453.099     477.568
  O      692.261    -451.718     477.445
  C      693.291    -453.892     477.609
  O      693.985    -453.791     476.338
  C      694.263    -453.388     478.680
  O      694.023    -453.989     479.936
  C      695.611    -453.755     478.080
  O      695.870    -455.160     478.266
  C      695.371    -453.440     476.589
  N      695.598    -452.043     476.123
  C      696.870    -451.651     475.709
  O      697.856    -452.389     475.685
  N      696.996    -450.362     475.266
  C      695.979    -449.483     475.068
  O      696.128    -448.347     474.623
  C      694.633    -449.987     475.374
  C      694.509    -451.214     475.897
  O      692.094    -449.317     476.728
  O      690.814    -451.118     475.409
  H      695.190    -455.650     477.768
  H      692.068    -448.926     475.830
  H      697.918    -450.033     475.030
  H      693.784    -449.342     475.180
  H      693.523    -451.600     476.136
  H      695.989    -454.085     475.954
  H      696.424    -453.228     478.586
  H      694.214    -452.290     478.752
  H      693.062    -454.944     477.781
  H      691.360    -453.449     476.731
  H      691.401    -453.284     478.476
  P      693.262    -453.178     481.089
  C      691.125    -454.591     481.185
  O      691.691    -453.359     480.785
  O      693.712    -451.757     481.292
  O      693.464    -454.072     482.393
  H      694.229    -453.739     482.921
  H      690.036    -454.536     481.072
  H      691.360    -454.805     482.227
  H      691.501    -455.393     480.536
  H      689.462    -449.709     479.633
  H      690.912    -448.961     479.007
  H      690.962    -450.606     479.595

 3  4  5  6  7  8  9  10  11  12  13  23  28  29  30  31  32 0
 6-311+G(2d,p)
 ****
 33  34 0
 6-311+G(2d,p)
 ****
 1  2  14  15  16  17  18  19  20  21  22  24  25  26  27 0
 3-21G
 ****
 35  36  37  38  39  40  41  42  43  44  45 0
 3-21G
 ****


