%nproc=1
%NoSave
%Mem=1900MB
#P OB98/GEN NMR

erre ene a

0 1
  C      217.335     -77.400    -158.928
  O      218.724     -77.451    -158.664
  H      216.931     -76.476    -158.507
  H      216.839     -78.250    -158.447
  H      217.139     -77.412    -160.005
  P      219.574     -78.549    -159.471
  C      219.791     -80.052    -157.362
  O      219.349     -79.946    -158.710
  C      220.545     -81.358    -157.152
  O      219.643     -82.486    -157.224
  C      221.646     -81.621    -158.184
  O      222.853     -80.951    -157.845
  C      221.801     -83.126    -158.053
  O      222.559     -83.435    -156.858
  C      220.346     -83.583    -157.872
  N      220.581     -86.213    -162.207
  C      221.522     -86.071    -161.206
  N      222.697     -86.714    -161.386
  N      221.334     -85.361    -160.121
  C      220.122     -84.753    -160.090
  C      219.111     -84.815    -161.021
  C      219.327     -85.611    -162.207
  O      218.520     -85.782    -163.116
  N      218.023     -84.063    -160.644
  C      218.389     -83.535    -159.490
  N      219.655     -83.921    -159.111
  O      221.089     -78.155    -159.111
  O      219.355     -78.568    -160.949
  H      222.154     -82.936    -156.126
  H      221.480     -77.683    -159.869
  H      220.784     -86.765    -163.024
  H      217.777     -82.881    -158.887
  H      220.259     -84.462    -157.214
  H      222.338     -83.572    -158.891
  H      222.920     -87.260    -162.205
  H      221.310     -81.373    -159.202
  H      223.402     -86.626    -160.662
  H      220.970     -81.348    -156.135
  H      218.916     -80.025    -156.694
  H      220.440     -79.201    -157.130
  P      223.568     -80.058    -158.973
  C      225.398     -81.824    -159.477
  O      224.303     -81.070    -159.980
  O      224.773     -79.379    -158.171
  O      222.696     -79.026    -159.617
  H      224.613     -78.417    -158.078
  H      225.786     -82.450    -160.253
  H      225.068     -82.431    -158.660
  H      226.164     -81.158    -159.139

 6  7  8  9  10  11  12  13  14  15  26  29  33  34 0
 6-311+G(2d,p)
 ****
 36  38  39  40  41 0
 6-311+G(2d,p)
 ****
 1  2  3  4  5  16  17  18  19  20  21  22  23  24  25 0
 3-21G
 ****
 27  28  30  31  32  35  37  42  43  44  45  46  47 0
 3-21G
 ****
 48  49 0
 3-21G
 ****


