%nproc=1
%NoSave
%Mem=1900MB
#P OB98/GEN NMR

erre ene a

0 1
  C      129.124    -700.478     362.706
  O      127.781    -700.360     363.111
  H      129.321    -699.758     361.909
  H      129.315    -701.483     362.322
  H      129.801    -700.267     363.539
  P      127.311    -701.214     364.388
  C      127.441    -699.159     365.976
  O      127.915    -700.471     365.684
  C      128.063    -698.661     367.282
  O      129.488    -698.457     367.094
  C      127.464    -697.335     367.776
  O      127.361    -697.386     369.205
  C      128.500    -696.298     367.374
  O      128.453    -695.127     368.181
  C      129.801    -697.113     367.486
  N      130.854    -696.536     366.650
  C      131.408    -695.319     367.083
  O      130.995    -694.786     368.108
  N      132.373    -694.721     366.320
  C      132.692    -695.239     365.165
  N      133.620    -694.574     364.426
  C      132.082    -696.471     364.635
  C      131.184    -697.071     365.425
  O      128.195    -702.545     364.293
  O      125.851    -701.505     364.464
  H      128.729    -695.371     369.100
  H      127.719    -703.315     364.650
  H      132.357    -696.852     363.658
  H      130.687    -697.980     365.123
  H      130.148    -697.142     368.520
  H      128.324    -695.993     366.334
  H      126.473    -697.124     367.351
  H      127.948    -699.444     368.045
  H      134.010    -693.713     364.812
  H      126.347    -699.186     366.091
  H      133.915    -694.855     363.502
  H      127.696    -698.486     365.149
  P      126.043    -698.062     369.822
  C      127.349    -700.225     370.439
  O      126.235    -699.654     369.774
  O      124.935    -697.774     368.704
  O      125.645    -697.505     371.159
  H      124.303    -697.106     369.018
  H      127.333    -701.287     370.313
  H      127.302    -699.989     371.481
  H      128.253    -699.830     370.024

 6  7  8  9  10  11  12  13  14  15  16  26  30  31  32  33  35 0
 6-311+G(2d,p)
 ****
 37  38 0
 6-311+G(2d,p)
 ****
 1  2  3  4  5  17  18  19  20  21  22  23  24  25 0
 3-21G
 ****
 27  28  29  34  36  39  40  41  42  43  44  45  46 0
 3-21G
 ****


