%nproc=1
%NoSave
%Mem=1900MB
#P OB98/GEN NMR

erre ene a

0 1
  C     -119.733      20.492      82.849
  O     -120.951      20.470      82.132
  H     -119.513      19.479      83.197
  H     -119.825      21.147      83.718
  H     -118.916      20.833      82.208
  P     -121.417      21.850      81.456
  C     -123.464      21.929      83.047
  O     -123.001      21.964      81.705
  C     -124.757      22.726      83.194
  O     -124.487      24.124      82.877
  C     -125.898      22.258      82.276
  O     -127.133      22.431      82.981
  C     -125.856      23.271      81.141
  O     -127.089      23.353      80.432
  C     -125.485      24.533      81.920
  N     -126.863      28.631      79.346
  C     -127.596      27.807      80.180
  N     -128.896      28.120      80.356
  N     -127.096      26.765      80.788
  C     -125.772      26.589      80.547
  C     -124.939      27.326      79.744
  C     -125.515      28.464      79.054
  O     -124.920      29.218      78.288
  N     -123.668      26.809      79.739
  C     -123.735      25.760      80.542
  N     -124.991      25.585      81.055
  O     -121.303      21.528      79.892
  O     -120.621      23.052      81.839
  H     -127.265      22.474      80.034
  H     -120.432      21.809      79.553
  H     -127.303      29.413      78.891
  H     -122.910      25.099      80.775
  H     -126.337      24.950      82.471
  H     -125.065      23.006      80.427
  H     -129.341      28.932      79.958
  H     -125.807      21.224      81.933
  H     -129.440      27.553      80.997
  H     -125.066      22.696      84.247
  H     -122.697      22.362      83.698
  H     -123.632      20.887      83.340
  P     -127.916      21.117      83.458
  C     -128.956      20.659      81.119
  O     -129.183      20.914      82.496
  O     -128.588      21.586      84.834
  O     -127.044      19.920      83.651
  H     -128.712      20.818      85.422
  H     -129.895      20.548      80.617
  H     -128.386      19.760      81.012
  H     -128.416      21.477      80.689

 6  7  8  9  10  11  12  13  14  15  26  29  33  34 0
 6-311+G(2d,p)
 ****
 36  38  39  40  41 0
 6-311+G(2d,p)
 ****
 1  2  3  4  5  16  17  18  19  20  21  22  23  24  25 0
 3-21G
 ****
 27  28  30  31  32  35  37  42  43  44  45  46  47 0
 3-21G
 ****
 48  49 0
 3-21G
 ****


