%nproc=1
%NoSave
%Mem=1900MB
#P OB98/GEN NMR

erre ene a

0 1
  C       16.091     236.694     219.856
  O       15.534     236.579     221.152
  P       15.798     235.266     222.036
  C       15.430     232.734     221.705
  O       15.275     234.037     221.144
  C       14.407     231.763     221.111
  O       13.063     232.226     221.360
  C       14.511     231.594     219.600
  O       15.603     230.752     219.266
  C       13.139     231.021     219.272
  O       13.102     229.603     219.503
  C       12.228     231.760     220.274
  N       11.491     232.853     219.653
  C       10.378     232.481     218.887
  O       10.093     231.291     218.743
  N        9.647     233.465     218.263
  C       10.010     234.707     218.381
  N        9.254     235.635     217.731
  C       11.194     235.136     219.152
  C       11.881     234.169     219.755
  O       15.264     235.321     223.430
  O       17.390     235.098     221.972
  H       12.188     229.318     219.312
  H       17.848     235.771     222.539
  H       11.462     236.180     219.210
  H       12.764     234.394     220.341
  H       11.504     231.066     220.721
  H       12.867     231.184     218.223
  H       14.621     232.578     219.124
  H       14.531     230.791     221.608
  H        8.468     235.296     217.189
  H       15.273     232.805     222.784
  H        9.468     236.619     217.724
  H       16.448     232.378     221.524
  P       16.446     231.027     217.935
  C       16.184     230.608     215.416
  O       15.622     230.420     216.699
  O       17.884     230.639     217.995
  O       16.294     232.611     217.717
  H       17.166     232.984     217.483
  H       15.737     229.885     214.727
  H       17.267     230.454     215.435
  H       15.964     231.618     215.068
  H       15.806     237.632     219.427
  H       15.730     235.896     219.241
  H       17.158     236.641     219.920

 3  4  5  6  7  8  9  10  11  12  13  23  27  28  29  30  32 0
 6-311+G(2d,p)
 ****
 34  35 0
 6-311+G(2d,p)
 ****
 1  2  14  15  16  17  18  19  20  21  22  24  25  26 0
 3-21G
 ****
 31  33  36  37  38  39  40  41  42  43  44  45  46 0
 3-21G
 ****


