%nproc=1
%NoSave
%Mem=1900MB
#P OB98/GEN NMR

erre ene a

0 1
  C       12.484    -208.687     421.923
  O       11.591    -208.174     420.958
  H       12.774    -209.707     421.652
  H       13.382    -208.061     421.946
  H       12.024    -208.684     422.918
  P       10.135    -208.845     420.883
  C        9.102    -207.867     423.063
  O        9.144    -207.829     421.647
  C        8.147    -206.798     423.600
  O        8.660    -205.487     423.230
  C        6.720    -206.914     423.040
  O        5.791    -206.599     424.079
  C        6.675    -205.844     421.964
  O        5.349    -205.390     421.711
  C        7.602    -204.777     422.552
  N        7.081    -200.262     420.215
  C        6.453    -200.810     421.274
  N        6.653    -202.016     421.845
  C        7.663    -202.667     421.225
  C        8.397    -202.240     420.127
  C        8.071    -200.975     419.610
  N        8.686    -200.431     418.505
  N        9.322    -203.204     419.760
  C        9.143    -204.190     420.622
  N        8.145    -203.913     421.518
  O       10.274    -210.069     421.913
  O        9.693    -209.293     419.533
  H        4.903    -206.052     421.140
  H       10.738    -210.809     421.473
  H        5.673    -200.198     421.725
  H        9.698    -205.121     420.627
  H        7.090    -204.130     423.282
  H        7.088    -206.239     421.024
  H        6.502    -207.903     422.647
  H        8.152    -206.840     424.699
  H       10.110    -207.689     423.459
  H        8.344    -199.540     418.164
  H        9.378    -200.965     418.007
  H        8.761    -208.859     423.388
  P        4.611    -207.657     424.344
  C        5.638    -210.001     424.783
  O        5.151    -208.792     425.347
  O        4.487    -208.423     422.938
  O        3.316    -207.028     424.741
  H        3.554    -208.446     422.662
  H        5.960    -210.655     425.566
  H        6.462    -209.786     424.136
  H        4.858    -210.473     424.222

 6  7  8  9  10  11  12  13  14  15  25  28  32  33  34  35 0
 6-311+G(2d,p)
 ****
 36  39  40 0
 6-311+G(2d,p)
 ****
 1  2  3  4  5  16  17  18  19  20  21  22  23  24 0
 3-21G
 ****
 26  27  29  30  31  37  38  41  42  43  44  45  46  47 0
 3-21G
 ****
 48 0
 3-21G
 ****


