%nproc=1
%NoSave
%Mem=1900MB
#P OB98/GEN NMR

erre ene a

0 1
  C      -78.040     515.245    -259.633
  O      -78.137     514.496    -258.439
  H      -77.127     515.842    -259.599
  H      -78.897     515.932    -259.714
  H      -78.007     514.587    -260.506
  P      -79.376     513.480    -258.313
  C      -80.812     515.016    -256.777
  O      -80.678     514.393    -258.052
  C      -81.938     516.052    -256.802
  O      -83.215     515.358    -256.612
  C      -81.831     517.130    -255.702
  O      -82.329     518.365    -256.238
  C      -82.820     516.630    -254.647
  O      -83.250     517.683    -253.778
  C      -83.911     516.065    -255.550
  N      -87.338     515.886    -251.868
  C      -86.648     516.965    -252.402
  N      -86.924     518.180    -251.874
  N      -85.779     516.854    -253.370
  C      -85.638     515.579    -253.821
  C      -86.248     514.440    -253.373
  C      -87.192     514.560    -252.275
  O      -87.814     513.643    -251.743
  N      -85.815     513.333    -254.077
  C      -84.940     513.812    -254.934
  N      -84.806     515.172    -254.829
  O      -79.116     512.779    -256.903
  O      -79.500     512.486    -259.420
  H      -82.455     518.153    -253.457
  H      -78.620     511.945    -257.022
  H      -87.982     516.024    -251.108
  H      -84.396     513.222    -255.663
  H      -84.536     516.836    -256.003
  H      -82.354     515.850    -254.036
  H      -87.608     518.349    -251.162
  H      -80.815     517.268    -255.309
  H      -86.460     518.985    -252.292
  H      -81.983     516.513    -257.801
  H      -79.869     515.515    -256.533
  H      -81.034     514.241    -256.027
  P      -81.254     519.429    -256.787
  C      -81.270     520.901    -254.634
  O      -80.520     520.084    -255.508
  O      -82.196     520.623    -257.318
  O      -80.364     518.897    -257.860
  H      -81.724     521.100    -258.034
  H      -80.639     521.253    -253.845
  H      -82.077     520.333    -254.219
  H      -81.663     521.736    -255.175

 6  7  8  9  10  11  12  13  14  15  26  29  33  34 0
 6-311+G(2d,p)
 ****
 36  38  39  40  41 0
 6-311+G(2d,p)
 ****
 1  2  3  4  5  16  17  18  19  20  21  22  23  24  25 0
 3-21G
 ****
 27  28  30  31  32  35  37  42  43  44  45  46  47 0
 3-21G
 ****
 48  49 0
 3-21G
 ****


