%nproc=1
%NoSave
%Mem=1900MB
#P OB98/GEN NMR

erre ene a

0 1
  C       -5.203    -203.777    -478.608
  O       -6.562    -203.376    -478.646
  P       -6.981    -202.127    -477.726
  C       -6.786    -200.241    -479.524
  O       -6.254    -200.844    -478.353
  C       -7.031    -198.753    -479.271
  O       -8.254    -198.566    -478.522
  C       -5.933    -198.064    -478.470
  O       -4.852    -197.714    -479.312
  C       -6.680    -196.863    -477.896
  O       -6.778    -195.808    -478.870
  C       -8.063    -197.462    -477.591
  N       -9.363    -196.129    -472.893
  C       -9.155    -195.349    -474.015
  N       -9.377    -194.024    -473.871
  N       -8.778    -195.821    -475.171
  C       -8.587    -197.163    -475.166
  C       -8.741    -198.043    -474.119
  C       -9.213    -197.510    -472.859
  O       -9.504    -198.172    -471.867
  N       -8.430    -199.326    -474.487
  C       -8.120    -199.222    -475.764
  N       -8.217    -197.938    -476.230
  O       -6.187    -202.399    -476.365
  O       -8.450    -201.959    -477.511
  H       -7.220    -196.146    -479.669
  H       -6.773    -202.809    -475.699
  H       -9.672    -195.714    -472.035
  H       -7.837    -200.051    -476.396
  H       -8.870    -196.746    -477.775
  H       -6.172    -196.439    -477.027
  H       -9.645    -193.584    -473.003
  H       -5.592    -198.710    -477.652
  H       -9.226    -193.432    -474.680
  H       -7.162    -198.263    -480.244
  H       -7.731    -200.725    -479.782
  H       -6.082    -200.379    -480.351
  P       -3.395    -197.609    -478.645
  C       -2.110    -199.832    -479.027
  O       -2.974    -199.087    -478.193
  O       -3.676    -196.850    -477.264
  O       -2.386    -196.882    -479.470
  H       -2.929    -196.256    -477.057
  H       -1.524    -200.515    -478.405
  H       -1.430    -199.188    -479.590
  H       -2.709    -200.421    -479.730
  H       -5.059    -204.613    -479.261
  H       -4.941    -204.056    -477.609
  H       -4.583    -202.965    -478.926

 3  4  5  6  7  8  9  10  11  12  23  26  30  31 0
 6-311+G(2d,p)
 ****
 33  35  36  37  38 0
 6-311+G(2d,p)
 ****
 1  2  13  14  15  16  17  18  19  20  21  22  24  25 0
 3-21G
 ****
 27  28  29  32  34  39  40  41  42  43  44  45  46  47  48  49 0
 3-21G
 ****


