%nproc=1
%NoSave
%Mem=1900MB
#P OB98/GEN NMR

erre ene a

0 1
  C     -562.024    -924.617     154.657
  O     -560.783    -925.140     155.086
  H     -562.825    -925.101     155.232
  H     -562.177    -924.832     153.601
  H     -562.078    -923.543     154.836
  P     -559.435    -924.470     154.540
  C     -558.583    -923.711     156.859
  O     -559.036    -923.312     155.571
  C     -558.388    -922.497     157.770
  O     -559.703    -921.917     158.055
  C     -557.740    -922.815     159.128
  O     -557.008    -921.653     159.535
  C     -558.973    -923.029     160.003
  O     -558.672    -923.085     161.367
  C     -559.837    -921.862     159.500
  N     -561.236    -921.902     159.887
  C     -561.736    -920.825     160.620
  O     -561.079    -919.839     160.942
  N     -563.069    -920.909     160.966
  C     -563.920    -921.935     160.661
  O     -565.096    -921.936     160.980
  C     -563.331    -923.051     159.900
  C     -562.033    -922.985     159.545
  O     -559.449    -924.066     153.108
  O     -558.318    -925.587     154.826
  H     -558.113    -926.060     153.997
  H     -558.382    -922.190     161.667
  H     -563.447    -920.137     161.495
  H     -563.966    -923.878     159.641
  H     -561.575    -923.779     158.972
  H     -559.401    -920.910     159.823
  H     -559.437    -923.998     159.761
  H     -557.063    -923.679     159.086
  H     -557.820    -921.728     157.232
  H     -557.618    -924.227     156.729
  H     -559.308    -924.399     157.302
  P     -555.551    -921.286     158.979
  C     -556.246    -918.990     157.994
  O     -555.731    -920.282     157.733
  O     -554.696    -922.466     158.673
  O     -554.883    -920.355     160.110
  H     -553.909    -920.429     160.059
  H     -556.309    -918.440     157.079
  H     -555.597    -918.478     158.674
  H     -557.221    -919.075     158.427

 6  7  8  9  10  11  12  13  14  15  16  27  31  32  33  34  35 0
 6-311+G(2d,p)
 ****
 36  37 0
 6-311+G(2d,p)
 ****
 1  2  3  4  5  17  18  19  20  21  22  23  24  25 0
 3-21G
 ****
 26  28  29  30  38  39  40  41  42  43  44  45 0
 3-21G
 ****


