%nproc=1
%NoSave
%Mem=1900MB
#P OB98/GEN NMR

erre ene a

0 1
  C      -86.498    -112.062    -195.835
  O      -86.381    -113.194    -194.991
  P      -86.643    -113.011    -193.423
  C      -89.227    -113.267    -193.562
  O      -88.128    -112.429    -193.242
  C      -89.841    -113.849    -192.288
  O      -91.097    -114.516    -192.618
  C      -88.950    -114.880    -191.579
  O      -89.180    -114.753    -190.168
  C      -89.518    -116.198    -192.071
  O      -89.175    -117.298    -191.243
  C      -91.011    -115.856    -192.093
  N      -91.799    -116.798    -192.885
  C      -92.528    -117.761    -192.195
  O      -92.544    -117.864    -190.970
  N      -93.203    -118.665    -192.969
  C      -93.154    -118.755    -194.330
  O      -93.688    -119.660    -194.958
  C      -92.369    -117.710    -195.006
  C      -91.739    -116.795    -194.265
  O      -85.702    -111.776    -193.036
  O      -86.350    -114.217    -192.595
  H      -89.389    -117.051    -190.325
  H      -84.879    -112.092    -192.618
  H      -93.745    -119.364    -192.486
  H      -92.325    -117.739    -196.087
  H      -91.136    -116.026    -194.737
  H      -91.407    -115.824    -191.069
  H      -89.140    -116.403    -193.078
  H      -87.885    -114.767    -191.803
  H      -90.084    -113.023    -191.607
  H      -88.882    -114.083    -194.200
  H      -89.973    -112.695    -194.124
  P      -87.939    -114.997    -189.179
  C      -87.319    -112.468    -189.400
  O      -86.895    -113.814    -189.448
  O      -87.258    -116.276    -189.865
  O      -88.339    -115.223    -187.757
  H      -87.217    -116.203    -190.833
  H      -88.097    -112.317    -188.649
  H      -87.701    -112.173    -190.380
  H      -86.462    -111.837    -189.151
  H      -86.294    -112.348    -196.846
  H      -85.797    -111.314    -195.528
  H      -87.491    -111.669    -195.769

 3  4  5  6  7  8  9  10  11  12  13  23  28  29  30  31  32 0
 6-311+G(2d,p)
 ****
 33  34 0
 6-311+G(2d,p)
 ****
 1  2  14  15  16  17  18  19  20  21  22  24  25  26 0
 3-21G
 ****
 27  35  36  37  38  39  40  41  42  43  44  45 0
 3-21G
 ****


