%nproc=1
%NoSave
%Mem=1900MB
#P OB98/GEN NMR

erre ene a

0 1
  C      117.950     871.743     277.484
  O      118.748     870.992     278.380
  H      118.608     872.273     276.789
  H      117.350     872.476     278.028
  H      117.297     871.078     276.909
  P      118.011     870.123     279.504
  C      117.645     872.111     281.114
  O      118.300     870.868     280.898
  C      118.276     872.837     282.295
  O      118.063     872.100     283.514
  C      119.790     873.028     282.160
  O      120.079     874.143     281.332
  C      120.171     873.259     283.617
  O      119.816     874.599     284.008
  C      119.266     872.238     284.334
  N      119.489     868.146     287.313
  C      118.814     869.336     287.494
  N      118.142     869.469     288.657
  N      118.820     870.310     286.629
  C      119.595     870.066     285.541
  C      120.322     868.925     285.262
  C      120.258     867.828     286.200
  O      120.827     866.742     286.073
  N      121.034     869.064     284.102
  C      120.713     870.257     283.658
  N      119.853     870.920     284.508
  O      118.330     868.655     279.529
  O      116.458     870.399     279.257
  H      120.183     875.197     283.325
  H      116.069     869.729     278.668
  H      119.459     867.440     288.028
  H      121.070     870.703     282.732
  H      118.947     872.586     285.321
  H      121.234     873.130     283.808
  H      118.337     868.884     289.461
  H      120.287     872.115     281.816
  H      117.685     870.358     288.833
  H      117.774     873.804     282.403
  H      116.592     871.895     281.321
  H      117.710     872.734     280.217
  P      120.863     873.958     279.940
  C      123.152     873.517     281.064
  O      122.378     874.393     280.256
  O      120.244     874.651     278.772
  O      120.988     872.375     279.760
  H      120.216     871.966     279.294
  H      124.133     873.925     281.194
  H      123.223     872.562     280.587
  H      122.683     873.405     282.019

 6  7  8  9  10  11  12  13  14  15  26  29  33  34 0
 6-311+G(2d,p)
 ****
 36  38  39  40  41 0
 6-311+G(2d,p)
 ****
 1  2  3  4  5  16  17  18  19  20  21  22  23  24  25 0
 3-21G
 ****
 27  28  30  31  32  35  37  42  43  44  45  46  47 0
 3-21G
 ****
 48  49 0
 3-21G
 ****


