%nproc=1
%NoSave
%Mem=1900MB
#P OB98/GEN NMR

erre ene a

0 1
  C      -62.021     582.118     510.638
  O      -62.187     581.143     511.657
  H      -61.007     582.037     510.237
  H      -62.156     583.126     511.041
  H      -62.732     581.940     509.834
  P      -63.487     581.244     512.590
  C      -61.715     581.933     514.338
  O      -62.928     581.227     514.102
  C      -61.411     582.041     515.833
  O      -60.116     582.641     516.046
  C      -62.387     582.917     516.604
  O      -63.704     582.414     516.683
  C      -61.618     583.196     517.886
  O      -61.732     582.135     518.830
  C      -60.160     583.275     517.355
  N      -59.665     584.644     517.303
  C      -59.005     585.092     518.446
  O      -58.867     584.412     519.465
  N      -58.545     586.380     518.407
  C      -58.709     587.258     517.368
  O      -58.282     588.412     517.394
  C      -59.438     586.742     516.198
  C      -59.871     585.470     516.220
  O      -64.555     580.222     512.328
  O      -63.985     582.754     512.407
  H      -61.213     582.386     519.613
  H      -64.909     582.872     512.732
  H      -58.056     586.723     519.224
  H      -59.598     587.411     515.364
  H      -60.411     585.061     515.369
  H      -59.485     582.685     517.998
  H      -61.954     584.111     518.376
  H      -62.471     583.885     516.076
  H      -61.380     581.020     516.250
  H      -61.827     582.946     513.914
  H      -60.892     581.429     513.815
  P      -64.996     583.332     516.880
  C      -65.584     582.697     519.357
  O      -65.946     582.639     517.980
  O      -65.630     583.877     515.648
  O      -64.387     584.578     517.710
  H      -64.878     585.386     517.428
  H      -66.322     582.189     519.942
  H      -65.524     583.719     519.667
  H      -64.633     582.226     519.496

 6  7  8  9  10  11  12  13  14  15  16  26  31  32  33  34  35 0
 6-311+G(2d,p)
 ****
 36  37 0
 6-311+G(2d,p)
 ****
 1  2  3  4  5  17  18  19  20  21  22  23  24  25 0
 3-21G
 ****
 27  28  29  30  38  39  40  41  42  43  44  45 0
 3-21G
 ****


