%nproc=1
%NoSave
%Mem=1900MB
#P OB98/GEN NMR

erre ene a

0 1
  C       24.474     -10.877      12.298
  O       24.506     -11.856      13.321
  P       23.104     -12.294      13.972
  C       23.405     -10.417      15.742
  O       23.135     -11.792      15.496
  C       24.098     -10.219      17.091
  O       24.520      -8.838      17.204
  C       23.219     -10.546      18.298
  O       24.048     -11.148      19.293
  C       22.772      -9.182      18.790
  O       22.423      -9.207      20.172
  C       23.998      -8.323      18.445
  N       23.666      -6.906      18.339
  C       24.009      -6.094      19.424
  O       24.493      -6.594      20.439
  N       23.749      -4.748      19.352
  C       23.104      -4.273      18.332
  N       22.873      -2.934      18.305
  C       22.615      -5.116      17.224
  C       22.947      -6.405      17.281
  O       23.250     -13.881      14.103
  O       21.901     -11.899      13.180
  H       22.401      -8.280      20.497
  H       22.386     -14.320      13.997
  H       22.050      -4.676      16.415
  H       22.652      -7.094      16.501
  H       24.779      -8.441      19.208
  H       21.897      -8.849      18.219
  H       22.390     -11.216      18.052
  H       25.004     -10.837      17.103
  H       23.205      -2.380      19.084
  H       22.460      -9.867      15.760
  H       22.378      -2.476      17.552
  H       24.018     -10.016      14.929
  P       23.555     -12.532      19.934
  C       23.732     -11.536      22.293
  O       24.175     -12.549      21.413
  O       24.501     -13.587      19.179
  O       22.117     -12.904      19.799
  H       24.254     -14.493      19.439
  H       24.123     -11.744      23.292
  H       22.641     -11.517      22.338
  H       24.112     -10.564      21.964
  H       25.470     -10.683      11.959
  H       24.046      -9.974      12.681
  H       23.882     -11.234      11.481

 3  4  5  6  7  8  9  10  11  12  13  21  23  27  28  29  30  32 0
 6-311+G(2d,p)
 ****
 34  35 0
 6-311+G(2d,p)
 ****
 1  2  14  15  16  17  18  19  20  22  24  25  26 0
 3-21G
 ****
 31  33  36  37  38  39  40  41  42  43  44  45  46 0
 3-21G
 ****


