%nproc=1
%NoSave
%Mem=1900MB
#P OB98/GEN NMR

erre ene a

0 1
  C       36.570      44.824     139.341
  O       37.167      43.842     138.512
  P       38.441      42.990     139.002
  C       39.990      44.788     137.971
  O       39.636      44.052     139.131
  C       41.023      45.864     138.319
  O       40.426      46.794     139.259
  C       42.309      45.319     138.958
  O       43.392      46.143     138.501
  C       42.067      45.533     140.441
  O       43.268      45.572     141.194
  C       41.282      46.851     140.420
  N       40.504      47.059     141.636
  C       41.180      47.525     142.765
  O       42.394      47.729     142.741
  N       40.462      47.752     143.915
  C       39.199      47.460     143.957
  N       38.518      47.759     145.098
  C       38.471      46.863     142.820
  C       39.172      46.715     141.700
  O       38.754      41.797     138.169
  O       38.128      42.657     140.533
  H       43.697      44.697     141.135
  H       37.571      41.847     140.647
  H       37.425      46.609     142.913
  H       38.717      46.309     140.809
  H       41.963      47.695     140.266
  H       41.451      44.714     140.830
  H       42.509      44.280     138.689
  H       41.258      46.424     137.405
  H       39.008      48.322     145.786
  H       39.092      45.276     137.583
  H       37.510      47.865     145.091
  H       40.372      44.107     137.204
  P       44.859      45.499     138.430
  C       45.614      46.716     140.595
  O       45.470      45.489     139.912
  O       45.697      46.680     137.734
  O       44.995      44.242     137.635
  H       46.471      46.296     137.276
  H       46.036      46.518     141.586
  H       44.644      47.202     140.722
  H       46.293      47.378     140.052
  H       35.743      45.269     138.828
  H       37.291      45.578     139.577
  H       36.224      44.366     140.244

 3  4  5  6  7  8  9  10  11  12  13  23  27  28  29  30  32 0
 6-311+G(2d,p)
 ****
 34  35 0
 6-311+G(2d,p)
 ****
 1  2  14  15  16  17  18  19  20  21  22  24  25  26 0
 3-21G
 ****
 31  33  36  37  38  39  40  41  42  43  44  45  46 0
 3-21G
 ****


