%nproc=1
%NoSave
%Mem=1900MB
#P OB98/GEN NMR

erre ene a

0 1
  C     1538.681     991.550     581.787
  O     1537.865     990.505     581.296
  H     1539.362     991.869     580.990
  H     1539.264     991.201     582.632
  H     1538.065     992.407     582.089
  P     1536.629     990.040     582.203
  C     1534.988     990.789     580.330
  O     1535.357     990.872     581.702
  C     1534.043     991.943     579.976
  O     1532.856     991.833     580.815
  C     1534.640     993.338     580.207
  O     1534.130     994.200     579.184
  C     1534.043     993.762     581.534
  O     1533.999     995.145     581.743
  C     1532.661     993.112     581.449
  N     1532.021     992.966     582.749
  C     1531.572     994.131     583.383
  O     1531.591     995.242     582.880
  N     1531.071     993.965     584.650
  C     1531.007     992.782     585.345
  O     1530.559     992.707     586.489
  C     1531.497     991.592     584.618
  C     1531.977     991.745     583.383
  O     1536.971     990.695     583.631
  O     1536.412     988.564     582.280
  H     1537.505     990.071     584.161
  H     1534.900     995.517     581.561
  H     1530.738     994.787     585.111
  H     1531.474     990.643     585.152
  H     1532.363     990.884     582.844
  H     1532.002     993.696     580.789
  H     1534.615     993.295     582.355
  H     1535.728     993.372     580.225
  H     1533.705     991.814     578.933
  H     1534.482     989.850     580.149
  H     1535.904     990.848     579.725
  P     1535.051     994.363     577.864
  C     1533.015     993.574     576.413
  O     1534.377     993.403     576.760
  O     1536.380     993.605     578.296
  O     1535.245     995.786     577.456
  H     1536.208     992.842     578.878
  H     1532.743     992.853     575.670
  H     1532.867     994.560     576.025
  H     1532.406     993.438     577.282

 6  7  8  9  10  11  12  13  14  15  16  27  31  32  33  34  35 0
 6-311+G(2d,p)
 ****
 36  37 0
 6-311+G(2d,p)
 ****
 1  2  3  4  5  17  18  19  20  21  22  23  24  25 0
 3-21G
 ****
 26  28  29  30  38  39  40  41  42  43  44  45 0
 3-21G
 ****


