%nproc=1
%NoSave
%Mem=1900MB
#P OB98/GEN NMR

erre ene a

0 1
  C     1806.829      54.994     170.593
  O     1808.201      55.346     170.623
  H     1806.555      54.663     169.588
  H     1806.653      54.178     171.293
  H     1806.217      55.856     170.880
  P     1808.669      56.541     169.665
  C     1807.988      58.419     171.322
  O     1807.760      57.803     170.061
  C     1809.131      59.418     171.202
  O     1808.804      60.436     170.225
  C     1809.447      60.185     172.480
  O     1810.262      59.414     173.376
  C     1810.206      61.371     171.937
  O     1811.549      60.980     171.586
  C     1809.401      61.695     170.661
  N     1807.944      66.510     169.759
  C     1809.074      65.840     169.429
  N     1809.372      64.556     169.714
  C     1808.396      63.965     170.406
  C     1807.204      64.534     170.821
  C     1806.984      65.873     170.465
  N     1805.854      66.576     170.807
  N     1806.453      63.624     171.547
  C     1807.177      62.521     171.534
  N     1808.359      62.683     170.879
  O     1808.103      56.123     168.235
  O     1810.138      56.818     169.642
  H     1811.879      61.643     170.951
  H     1808.595      56.588     167.525
  H     1809.811      66.395     168.868
  H     1806.876      61.586     171.997
  H     1810.036      62.060     169.850
  H     1810.285      62.195     172.642
  H     1808.529      60.527     172.979
  H     1810.018      58.888     170.835
  H     1808.254      57.658     172.054
  H     1805.878      67.579     170.669
  H     1805.201      66.152     171.461
  H     1807.072      58.937     171.640
  P     1809.707      59.196     174.862
  C     1809.923      56.597     174.729
  O     1809.063      57.728     174.877
  O     1808.457      60.169     174.934
  O     1810.719      59.477     175.944
  H     1808.288      60.461     175.858
  H     1809.341      55.700     174.760
  H     1810.638      56.586     175.525
  H     1810.434      56.658     173.791

 6  7  8  9  10  11  12  13  14  15  25  28  32  33  34  35 0
 6-311+G(2d,p)
 ****
 36  39  40 0
 6-311+G(2d,p)
 ****
 1  2  3  4  5  16  17  18  19  20  21  22  23  24 0
 3-21G
 ****
 26  27  29  30  31  37  38  41  42  43  44  45  46  47 0
 3-21G
 ****
 48 0
 3-21G
 ****


