%nproc=1
%NoSave
%Mem=1900MB
#P OB98/GEN NMR

erre ene a

0 1
  C       85.247     148.818       2.812
  O       84.145     149.166       3.655
  P       84.040     150.689       4.142
  C       85.588     152.402       5.346
  O       85.350     151.044       4.991
  C       86.489     152.475       6.580
  O       85.778     152.077       7.768
  C       87.686     151.543       6.503
  O       88.690     152.090       5.670
  C       88.096     151.429       7.966
  O       89.044     152.445       8.333
  C       86.760     151.628       8.719
  N       86.320     150.427       9.407
  C       87.112     150.014      10.483
  O       88.128     150.643      10.784
  N       86.746     148.885      11.172
  C       85.699     148.215      10.801
  N       85.389     147.103      11.519
  C       84.852     148.603       9.655
  C       85.218     149.707       9.008
  O       82.884     150.642       5.248
  O       83.714     151.653       3.048
  H       89.370     152.191       9.221
  H       82.382     151.476       5.249
  H       83.994     148.009       9.380
  H       84.655     150.067       8.153
  H       86.859     152.427       9.465
  H       88.570     150.465       8.174
  H       87.373     150.560       6.128
  H       86.828     153.512       6.703
  H       85.993     146.865      12.297
  H       84.643     152.910       5.544
  H       84.602     146.505      11.315
  H       86.048     152.913       4.494
  P       88.973     151.368       4.270
  C       90.157     149.201       3.569
  O       89.725     150.003       4.651
  O       90.173     152.249       3.675
  O       87.835     151.256       3.313
  H       90.380     151.965       2.767
  H       90.825     148.426       3.953
  H       90.702     149.802       2.837
  H       89.297     148.721       3.095
  H       85.193     147.778       2.565
  H       86.165     149.015       3.325
  H       85.208     149.400       1.915

 3  4  5  6  7  8  9  10  11  12  13  21  23  27  28  29  30  32 0
 6-311+G(2d,p)
 ****
 34  35 0
 6-311+G(2d,p)
 ****
 1  2  14  15  16  17  18  19  20  22  24  25  26 0
 3-21G
 ****
 31  33  36  37  38  39  40  41  42  43  44  45  46 0
 3-21G
 ****


