%nproc=1
%NoSave
%Mem=1900MB
#P OB98/GEN NMR

erre ene a

0 1
  C     -157.323     169.191      -2.170
  O     -158.310     170.192      -2.049
  H     -157.793     168.281      -2.548
  H     -156.889     168.982      -1.188
  H     -156.535     169.493      -2.863
  P     -157.848     171.712      -1.862
  C     -159.657     172.176      -0.081
  O     -159.125     172.535      -1.346
  C     -161.183     172.038      -0.142
  O     -161.787     173.354      -0.180
  C     -161.603     171.319      -1.426
  O     -162.824     170.605      -1.267
  C     -161.820     172.467      -2.399
  O     -162.667     172.120      -3.492
  C     -162.400     173.531      -1.470
  N     -164.523     177.967      -2.797
  C     -165.130     176.764      -2.497
  N     -166.478     176.733      -2.583
  N     -164.471     175.686      -2.159
  C     -163.127     175.843      -2.187
  C     -162.409     176.978      -2.493
  C     -163.150     178.174      -2.826
  O     -162.665     179.264      -3.119
  N     -161.058     176.747      -2.433
  C     -160.957     175.477      -2.099
  N     -162.185     174.888      -1.926
  O     -157.675     172.245      -3.363
  O     -156.598     171.916      -1.061
  H     -162.647     172.862      -4.125
  H     -157.048     172.989      -3.389
  H     -165.077     178.771      -3.035
  H     -160.026     174.940      -1.967
  H     -163.483     173.391      -1.350
  H     -160.850     172.750      -2.819
  H     -167.008     177.480      -3.005
  H     -160.834     170.632      -1.782
  H     -166.909     175.808      -2.656
  H     -161.555     171.543       0.761
  H     -159.381     172.967       0.624
  H     -159.201     171.248       0.272
  P     -162.763     169.005      -1.347
  C     -163.183     168.806      -3.929
  O     -163.632     168.545      -2.613
  O     -163.623     168.533      -0.086
  O     -161.377     168.456      -1.320
  H     -163.036     168.204       0.619
  H     -163.895     168.425      -4.631
  H     -162.238     168.329      -4.085
  H     -163.076     169.862      -4.067

 6  7  8  9  10  11  12  13  14  15  26  29  33  34 0
 6-311+G(2d,p)
 ****
 36  38  39  40  41 0
 6-311+G(2d,p)
 ****
 1  2  3  4  5  16  17  18  19  20  21  22  23  24  25 0
 3-21G
 ****
 27  28  30  31  32  35  37  42  43  44  45  46  47 0
 3-21G
 ****
 48  49 0
 3-21G
 ****


