%nproc=1
%NoSave
%Mem=1900MB
#P OB98/GEN NMR

erre ene a

0 1
  C     -893.520    -788.268    -890.760
  O     -894.400    -787.161    -890.980
  P     -893.870    -785.982    -891.980
  C     -895.470    -786.329    -894.070
  O     -894.180    -786.412    -893.500
  C     -895.880    -787.725    -894.720
  O     -895.760    -788.765    -893.730
  C     -897.250    -787.756    -895.380
  O     -897.270    -787.271    -896.710
  C     -897.660    -789.233    -895.230
  O     -896.970    -789.995    -896.260
  C     -896.990    -789.555    -893.810
  N     -897.860    -789.339    -892.610
  C     -898.670    -790.354    -892.080
  O     -898.710    -791.436    -892.510
  N     -899.350    -790.026    -890.930
  C     -899.290    -788.850    -890.210
  O     -899.880    -788.679    -889.140
  C     -898.310    -787.871    -890.730
  C     -897.670    -788.098    -891.810
  O     -892.270    -786.035    -891.850
  O     -894.380    -784.637    -891.600
  H     -897.440    -789.786    -897.120
  H     -891.950    -785.232    -891.460
  H     -900.000    -790.731    -890.600
  H     -898.210    -786.987    -890.090
  H     -896.980    -787.350    -892.190
  H     -896.750    -790.652    -893.800
  H     -898.720    -789.411    -895.370
  H     -897.960    -787.162    -894.710
  H     -895.080    -787.971    -895.520
  H     -895.470    -785.563    -894.890
  H     -896.200    -786.072    -893.350
  P     -897.030    -785.720    -897.030
  C     -895.920    -785.921    -899.390
  O     -895.700    -785.679    -898.000
  O     -896.940    -784.784    -895.810
  O     -898.200    -785.356    -897.990
  H     -898.950    -784.948    -897.520
  H     -895.050    -785.665    -900.000
  H     -896.780    -785.283    -899.720
  H     -896.250    -786.966    -899.570
  H     -893.982    -788.964    -890.092
  H     -892.605    -787.916    -890.332
  H     -893.315    -788.751    -891.692

 3  4  5  6  7  8  9  10  11  12  13  23  28  29  30  31  32 0
 6-311+G(2d,p)
 ****
 33  34 0
 6-311+G(2d,p)
 ****
 1  2  14  15  16  17  18  19  20  21  22  24  25  26  27 0
 3-21G
 ****
 35  36  37  38  39  40  41  42  43  44  45 0
 3-21G
 ****


