%nproc=1
%NoSave
%Mem=1900MB
#P OB98/GEN NMR

erre ene a

0 1
  C      369.402    -749.471     179.901
  O      368.236    -749.785     179.172
  P      367.013    -748.771     178.999
  C      365.687    -747.599     180.896
  O      366.111    -748.824     180.327
  C      365.305    -747.715     182.378
  O      366.480    -748.041     183.144
  C      364.802    -746.370     182.910
  O      363.449    -745.992     182.716
  C      365.281    -746.301     184.353
  O      364.271    -746.680     185.286
  C      366.444    -747.308     184.383
  N      369.951    -746.034     187.821
  C      368.883    -746.907     187.948
  N      368.628    -747.349     189.203
  N      368.139    -747.293     186.938
  C      368.468    -746.697     185.763
  C      369.515    -745.834     185.517
  C      370.351    -745.452     186.629
  O      371.243    -744.611     186.575
  N      369.491    -745.376     184.222
  C      368.420    -745.934     183.699
  N      367.740    -746.709     184.613
  O      366.331    -748.772     177.667
  O      367.760    -747.343     179.150
  H      364.706    -746.900     186.133
  H      367.310    -746.707     178.564
  H      370.442    -745.713     188.644
  H      368.061    -745.778     182.684
  H      366.284    -748.053     185.186
  H      365.584    -745.286     184.618
  H      369.076    -746.956     190.008
  H      365.371    -745.587     182.383
  H      367.756    -747.844     189.351
  H      364.605    -748.541     182.544
  H      364.826    -747.243     180.307
  H      366.473    -746.843     180.787
  P      362.837    -744.524     182.932
  C      363.020    -742.638     184.649
  O      363.267    -744.007     184.386
  O      361.263    -744.781     183.099
  O      363.091    -743.562     181.814
  H      360.766    -743.959     182.883
  H      363.608    -742.327     185.515
  H      361.960    -742.487     184.873
  H      363.303    -742.013     183.786
  H      370.074    -750.303     179.875
  H      369.141    -749.255     180.916
  H      369.876    -748.616     179.465

 3  4  5  6  7  8  9  10  11  12  23  26  30  31 0
 6-311+G(2d,p)
 ****
 33  35  36  37  38 0
 6-311+G(2d,p)
 ****
 1  2  13  14  15  16  17  18  19  20  21  22  24  25 0
 3-21G
 ****
 27  28  29  32  34  39  40  41  42  43  44  45  46  47  48  49 0
 3-21G
 ****


