%nproc=1
%NoSave
%Mem=1900MB
#P OB98/GEN NMR

erre ene a

0 1
  C      111.567     415.439     570.648
  O      111.540     415.976     569.342
  H      112.582     415.094     570.867
  H      110.889     414.584     570.711
  H      111.286     416.190     571.391
  P      110.255     416.813     568.875
  C      108.673     414.790     569.095
  O      108.980     416.102     569.545
  C      107.470     414.220     569.857
  O      107.824     414.113     571.268
  C      106.204     415.087     569.769
  O      105.076     414.205     569.843
  C      106.307     415.924     571.028
  O      105.068     416.507     571.366
  C      106.859     414.889     572.011
  N      107.444     415.497     573.202
  C      106.672     415.479     574.358
  O      105.535     415.004     574.401
  N      107.224     416.059     575.466
  C      108.427     416.703     575.507
  O      108.861     417.237     576.523
  C      109.182     416.736     574.242
  C      108.667     416.141     573.167
  O      110.134     417.051     567.409
  O      110.356     418.184     569.695
  H      104.890     417.274     570.784
  H      109.956     418.912     569.182
  H      106.680     416.042     576.313
  H      110.133     417.249     574.244
  H      109.205     416.147     572.224
  H      106.064     414.204     572.342
  H      107.028     416.736     570.893
  H      106.160     415.691     568.858
  H      107.278     413.199     569.503
  H      109.552     414.158     569.260
  H      108.449     414.811     568.023
  P      104.569     413.353     568.584
  C      102.395     414.632     568.039
  O      103.718     414.321     567.617
  O      103.866     412.089     568.936
  O      105.893     413.055     567.734
  H      105.779     412.223     567.236
  H      101.934     415.277     567.321
  H      102.430     415.123     568.989
  H      101.827     413.730     568.125

 6  7  8  9  10  11  12  13  14  15  16  26  31  32  33  34  35 0
 6-311+G(2d,p)
 ****
 36  37 0
 6-311+G(2d,p)
 ****
 1  2  3  4  5  17  18  19  20  21  22  23  24  25 0
 3-21G
 ****
 27  28  29  30  38  39  40  41  42  43  44  45 0
 3-21G
 ****


