%nproc=1
%NoSave
%Mem=1900MB
#P OB98/GEN NMR

erre ene a

0 1
  C     -480.475     258.562      67.512
  O     -481.067     257.407      66.950
  H     -481.255     259.302      67.695
  H     -479.739     258.980      66.825
  H     -479.994     258.313      68.463
  P     -480.080     256.178      66.626
  C     -480.381     254.785      68.808
  O     -480.668     254.911      67.412
  C     -481.113     253.570      69.371
  O     -482.539     253.820      69.393
  C     -480.934     252.294      68.538
  O     -479.675     251.676      68.774
  C     -482.125     251.480      69.017
  O     -481.842     250.790      70.243
  C     -483.203     252.538      69.243
  N     -487.680     250.759      67.554
  C     -487.016     250.582      68.720
  N     -485.839     251.102      69.101
  C     -485.338     251.902      68.130
  C     -485.905     252.184      66.896
  C     -487.133     251.562      66.618
  N     -487.797     251.729      65.417
  N     -485.075     253.019      66.164
  C     -484.036     253.243      66.946
  N     -484.162     252.603      68.152
  O     -478.756     256.556      67.440
  O     -479.802     255.957      65.175
  H     -481.107     250.174      70.035
  H     -478.099     256.945      66.830
  H     -487.513     249.931      69.450
  H     -483.179     253.856      66.692
  H     -483.769     252.363      70.167
  H     -482.400     250.727      68.273
  H     -481.062     252.527      67.477
  H     -480.786     253.412      70.416
  H     -480.720     255.689      69.337
  H     -479.298     254.675      68.938
  H     -488.630     251.203      65.258
  H     -487.336     252.239      64.670
  P     -479.031     250.864      67.559
  C     -477.664     252.834      66.514
  O     -477.644     251.583      67.191
  O     -479.968     251.207      66.307
  O     -478.917     249.384      67.779
  H     -480.047     250.427      65.722
  H     -476.660     253.166      66.349
  H     -478.185     253.554      67.110
  H     -478.162     252.723      65.573

 6  7  8  9  10  11  12  13  14  15  25  28  32  33  34  35 0
 6-311+G(2d,p)
 ****
 36  37  40 0
 6-311+G(2d,p)
 ****
 1  2  3  4  5  16  17  18  19  20  21  22  23  24 0
 3-21G
 ****
 26  27  29  30  31  38  39 41  42  43  44  45  46  47  48 0
 3-21G
 ****


