%nproc=1
%NoSave
%Mem=1900MB
#P OB98/GEN NMR

erre ene a

0 1
  C     -468.387     151.606    -221.901
  O     -469.154     152.793    -221.952
  H     -467.435     151.824    -221.409
  H     -468.183     151.233    -222.906
  H     -468.912     150.842    -221.318
  P     -470.570     152.756    -222.698
  C     -469.951     154.743    -224.242
  O     -470.829     154.247    -223.238
  C     -470.023     156.267    -224.317
  O     -471.331     156.680    -224.762
  C     -469.797     156.967    -222.980
  O     -468.430     156.949    -222.633
  C     -470.379     158.333    -223.281
  O     -469.459     159.131    -224.045
  C     -471.615     157.957    -224.138
  N     -472.857     157.896    -223.374
  C     -473.664     159.036    -223.403
  O     -473.308     160.030    -224.042
  N     -474.841     159.031    -222.696
  C     -475.210     157.963    -222.049
  N     -476.388     158.019    -221.379
  C     -474.408     156.725    -222.022
  C     -473.250     156.764    -222.681
  O     -471.711     152.169    -221.926
  O     -470.276     151.931    -224.039
  H     -469.876     160.009    -224.134
  H     -470.487     150.987    -223.911
  H     -474.751     155.859    -221.477
  H     -472.597     155.894    -222.711
  H     -471.754     158.685    -224.949
  H     -470.614     158.900    -222.375
  H     -470.404     156.495    -222.196
  H     -469.295     156.604    -225.065
  H     -476.911     158.882    -221.442
  H     -470.265     154.306    -225.195
  H     -476.843     157.209    -220.982
  H     -468.921     154.424    -224.043
  P     -467.942     156.782    -221.112
  C     -467.435     159.251    -220.605
  O     -466.885     157.963    -220.860
  O     -467.460     155.418    -220.752
  O     -469.207     157.253    -220.257
  H     -469.897     156.542    -220.243
  H     -466.642     159.954    -220.453
  H     -468.048     159.210    -219.729
  H     -468.028     159.558    -221.441

 6  7  8  9  10  11  12  13  14  15  16  26  30  31  32  33  35 0
 6-311+G(2d,p)
 ****
 37  38 0
 6-311+G(2d,p)
 ****
 1  2  3  4  5  17  18  19  20  21  22  23  24  25 0
 3-21G
 ****
 27  28  29  34  36  39  40  41  42  43  44  45  46 0
 3-21G
 ****


