%nproc=1
%NoSave
%Mem=1900MB
#P OB98/GEN NMR

erre ene a

0 1
  C      -23.933      53.194      60.932
  O      -22.960      53.922      61.689
  P      -22.178      53.125      62.843
  C      -19.750      53.256      61.869
  O      -20.687      53.711      62.835
  C      -18.546      54.196      61.826
  O      -18.917      55.474      61.254
  C      -17.959      54.518      63.191
  O      -17.218      53.425      63.708
  C      -17.134      55.756      62.865
  O      -15.879      55.380      62.278
  C      -18.017      56.461      61.814
  N      -18.745      57.602      62.351
  C      -17.973      58.713      62.678
  O      -16.750      58.742      62.555
  N      -18.657      59.789      63.177
  C      -20.001      59.849      63.401
  O      -20.561      60.845      63.840
  C      -20.756      58.628      63.082
  C      -20.105      57.576      62.580
  O      -22.042      51.678      62.180
  O      -22.886      53.158      64.155
  H      -21.912      51.711      61.217
  H      -15.414      54.836      62.944
  H      -18.117      60.608      63.408
  H      -21.822      58.631      63.272
  H      -20.645      56.665      62.341
  H      -17.399      56.815      60.979
  H      -16.913      56.358      63.752
  H      -18.763      54.782      63.890
  H      -17.781      53.740      61.184
  H      -20.217      53.226      60.881
  H      -19.446      52.236      62.123
  P      -16.666      53.568      65.211
  C      -17.903      51.405      66.002
  O      -16.683      52.096      65.842
  O      -17.893      54.310      65.922
  O      -15.366      54.296      65.306
  H      -18.756      53.937      65.678
  H      -17.690      50.337      66.105
  H      -18.561      51.549      65.143
  H      -18.404      51.752      66.909
  H      -24.374      53.841      60.203
  H      -24.693      52.826      61.589
  H      -23.459      52.372      60.439

 3  4  5  6  7  8  9  10  11  12  13  24  28  29  30  31  32 0
 6-311+G(2d,p)
 ****
 33  34 0
 6-311+G(2d,p)
 ****
 1  2  14  15  16  17  18  19  20  21  22  23  25  26  27 0
 3-21G
 ****
 35  36  37  38  39  40  41  42  43  44  45 0
 3-21G
 ****


