%nproc=1
%NoSave
%Mem=1900MB
#P OB98/GEN NMR

erre ene a

0 1
  C      512.106      46.131    1275.808
  O      513.417      45.894    1276.274
  H      512.061      45.900    1274.738
  H      511.838      47.186    1275.946
  H      511.396      45.494    1276.339
  P      513.729      46.276    1277.799
  C      513.891      43.801    1278.563
  O      513.227      45.049    1278.695
  C      514.587      43.448    1279.876
  O      513.614      43.422    1280.959
  C      515.247      42.078    1279.888
  O      516.493      42.066    1279.220
  C      515.382      41.832    1281.379
  O      516.570      42.438    1281.906
  C      514.121      42.503    1281.954
  N      513.113      41.516    1282.337
  C      512.406      41.805    1283.497
  O      512.601      42.818    1284.171
  N      511.488      40.862    1283.889
  C      511.252      39.673    1283.268
  O      510.454      38.845    1283.708
  C      512.041      39.413    1282.055
  C      512.928      40.324    1281.653
  O      512.673      47.433    1278.109
  O      515.133      46.717    1278.060
  H      513.126      48.298    1278.143
  H      516.361      43.386    1282.013
  H      510.969      41.062    1284.726
  H      511.885      38.474    1281.542
  H      513.526      40.153    1280.764
  H      514.364      43.106    1282.833
  H      515.439      40.769    1281.594
  H      514.561      41.325    1279.467
  H      515.330      44.232    1280.099
  H      514.647      43.865    1277.769
  H      513.161      43.032    1278.287
  P      516.847      40.793    1278.303
  C      515.753      41.723    1276.093
  O      515.731      40.770    1277.148
  O      516.433      39.589    1279.287
  O      518.268      40.770    1277.838
  H      515.738      39.866    1279.918
  H      514.933      41.541    1275.431
  H      516.673      41.637    1275.553
  H      515.670      42.709    1276.501

 6  7  8  9  10  11  12  13  14  15  16  27  31  32  33  34  35 0
 6-311+G(2d,p)
 ****
 36  37 0
 6-311+G(2d,p)
 ****
 1  2  3  4  5  17  18  19  20  21  22  23  24  25 0
 3-21G
 ****
 26  28  29  30  38  39  40  41  42  43  44  45 0
 3-21G
 ****


