%nproc=1
%NoSave
%Mem=1900MB
#P OB98/GEN NMR

erre ene a

0 1
  C      -68.831    -206.745    -388.823
  O      -69.279    -205.387    -388.756
  P      -70.163    -204.815    -387.550
  C      -72.191    -206.355    -387.943
  O      -71.170    -205.950    -387.035
  C      -72.899    -207.624    -387.465
  O      -72.034    -208.772    -387.602
  C      -73.316    -207.614    -385.997
  O      -74.472    -206.807    -385.800
  C      -73.528    -209.097    -385.733
  O      -74.824    -209.526    -386.184
  C      -72.408    -209.733    -386.592
  N      -71.260    -210.150    -385.798
  C      -71.124    -211.524    -385.565
  O      -71.971    -212.309    -385.982
  N      -70.029    -211.964    -384.854
  C      -69.203    -211.108    -384.351
  N      -68.138    -211.604    -383.659
  C      -69.359    -209.639    -384.491
  C      -70.402    -209.245    -385.219
  O      -70.822    -203.507    -387.839
  O      -69.132    -204.654    -386.328
  H      -74.852    -210.493    -386.042
  H      -69.415    -203.903    -385.759
  H      -68.662    -208.963    -384.030
  H      -70.591    -208.181    -385.378
  H      -72.795    -210.606    -387.136
  H      -73.458    -209.355    -384.669
  H      -72.489    -207.243    -385.381
  H      -73.773    -207.784    -388.108
  H      -68.050    -212.605    -383.587
  H      -71.724    -206.552    -388.917
  H      -67.429    -211.019    -383.230
  H      -72.910    -205.534    -388.054
  P      -74.322    -205.354    -385.137
  C      -75.796    -205.828    -383.086
  O      -74.487    -205.523    -383.550
  O      -75.150    -204.280    -385.761
  O      -72.757    -205.028    -385.281
  H      -72.644    -204.064    -385.390
  H      -75.709    -206.307    -382.105
  H      -76.306    -206.513    -383.777
  H      -76.371    -204.905    -383.000
  H      -68.260    -206.889    -389.717
  H      -69.677    -207.400    -388.831
  H      -68.221    -206.962    -387.971

 3  4  5  6  7  8  9  10  11  12  13  23  27  28  29  30  32 0
 6-311+G(2d,p)
 ****
 34  35 0
 6-311+G(2d,p)
 ****
 1  2  14  15  16  17  18  19  20  21  22  24  25  26 0
 3-21G
 ****
 31  33  36  37  38  39  40  41  42  43  44  45  46 0
 3-21G
 ****


