%nproc=1
%NoSave
%Mem=1900MB
#P OB98/GEN NMR

erre ene a

0 1
  C       73.797    -215.331     -40.237
  O       73.106    -214.691     -41.285
  H       74.741    -214.802     -40.069
  H       74.026    -216.368     -40.498
  H       73.208    -215.300     -39.315
  P       71.774    -215.371     -41.875
  C       72.436    -215.217     -44.349
  O       72.248    -216.089     -43.242
  C       72.325    -215.969     -45.680
  O       73.489    -216.820     -45.857
  C       71.078    -216.856     -45.788
  O       70.453    -216.645     -47.058
  C       71.635    -218.271     -45.702
  O       70.772    -219.229     -46.311
  C       73.012    -218.086     -46.356
  N       73.938    -219.173     -46.051
  C       74.568    -219.786     -47.143
  O       74.299    -219.428     -48.291
  N       75.448    -220.810     -46.911
  C       75.647    -221.227     -45.700
  N       76.527    -222.256     -45.537
  C       74.973    -220.645     -44.520
  C       74.145    -219.623     -44.766
  O       70.610    -214.448     -42.022
  O       71.491    -216.612     -40.901
  H       69.951    -219.293     -45.770
  H       70.546    -216.889     -40.989
  H       75.163    -221.032     -43.530
  H       73.611    -219.127     -43.961
  H       72.917    -218.010     -47.449
  H       71.760    -218.551     -44.647
  H       70.346    -216.666     -45.007
  H       72.362    -215.229     -46.496
  H       76.970    -222.627     -46.371
  H       73.422    -214.744     -44.260
  H       76.756    -222.667     -44.643
  H       71.661    -214.443     -44.313
  P       69.524    -215.338     -47.179
  C       67.196    -216.472     -47.017
  O       68.155    -215.631     -46.390
  O       69.088    -215.344     -48.720
  O       70.218    -214.070     -46.802
  H       69.630    -214.708     -49.225
  H       66.343    -216.576     -46.380
  H       67.628    -217.435     -47.195
  H       66.895    -216.038     -47.948

 6  7  8  9  10  11  12  13  14  15  16  26  30  31  32  33  35 0
 6-311+G(2d,p)
 ****
 37  38 0
 6-311+G(2d,p)
 ****
 1  2  3  4  5  17  18  19  20  21  22  23  24  25 0
 3-21G
 ****
 27  28  29  34  36  39  40  41  42  43  44  45  46 0
 3-21G
 ****


