%nproc=1
%NoSave
%Mem=1900MB
#P OB98/GEN NMR

erre ene a

0 1
  C      117.942     213.078     275.006
  O      118.436     213.101     276.331
  H      118.538     212.371     274.423
  H      118.024     214.070     274.552
  H      116.899     212.750     275.001
  P      117.714     214.110     277.349
  C      117.026     212.215     278.956
  O      117.824     213.380     278.776
  C      117.875     211.063     279.496
  O      118.617     210.481     278.395
  C      118.887     211.501     280.559
  O      118.982     210.490     281.561
  C      120.197     211.581     279.794
  O      121.332     211.405     280.638
  C      120.011     210.482     278.746
  N      124.581     209.621     276.642
  C      124.000     209.148     277.764
  N      122.767     209.418     278.246
  C      122.098     210.235     277.408
  C      122.562     210.799     276.234
  C      123.874     210.466     275.857
  N      124.483     210.967     274.726
  N      121.597     211.619     275.683
  C      120.566     211.542     276.504
  N      120.829     210.727     277.572
  O      116.342     214.550     276.960
  O      118.800     215.277     277.474
  H      121.415     212.197     281.209
  H      119.702     214.917     277.571
  H      124.605     208.469     278.361
  H      119.620     212.058     276.377
  H      120.279     209.488     279.130
  H      120.282     212.562     279.312
  H      118.626     212.455     281.018
  H      117.208     210.283     279.879
  H      116.574     211.920     278.002
  H      125.422     210.664     274.519
  H      123.964     211.582     274.117
  H      116.226     212.460     279.661
  P      119.780     210.827     282.912
  C      117.723     210.601     284.455
  O      119.027     210.119     284.142
  O      120.143     212.257     283.117
  O      121.101     209.924     282.762
  H      121.862     210.415     283.125
  H      117.330     210.053     285.286
  H      117.082     210.472     283.608
  H      117.777     211.640     284.706

 6  7  8  9  10  11  12  13  14  15  25  28  32  33  34  35 0
 6-311+G(2d,p)
 ****
 36  39  40 0
 6-311+G(2d,p)
 ****
 1  2  3  4  5  16  17  18  19  20  21  22  23  24 0
 3-21G
 ****
 26  27  29  30  31  37  38  41  42  43  44  45  46  47 0
 3-21G
 ****
 48 0
 3-21G
 ****


