%nproc=1
%NoSave
%Mem=1900MB
#P OB98/GEN NMR

erre ene a

0 1
  C      -68.394       0.070     198.954
  O      -68.296      -1.138     199.679
  P      -67.609      -2.430     199.023
  C      -69.292      -4.321     199.513
  O      -68.092      -3.671     199.921
  C      -69.141      -5.841     199.592
  O      -68.059      -6.287     198.752
  C      -68.826      -6.362     200.988
  O      -69.992      -6.371     201.792
  C      -68.266      -7.741     200.665
  O      -69.319      -8.698     200.465
  C      -67.506      -7.481     199.346
  N      -66.066      -7.369     199.547
  C      -65.375      -8.578     199.691
  O      -65.981      -9.649     199.680
  N      -64.017      -8.538     199.896
  C      -63.412      -7.393     199.973
  N      -62.068      -7.420     200.188
  C      -64.109      -6.098     199.856
  C      -65.423      -6.160     199.650
  O      -66.137      -2.329     198.807
  O      -68.437      -2.631     197.666
  H      -69.887      -8.332     199.759
  H      -68.188      -1.956     196.989
  H      -63.563      -5.170     199.940
  H      -66.014      -5.257     199.555
  H      -67.689      -8.294     198.631
  H      -67.632      -8.125     201.471
  H      -68.045      -5.746     201.446
  H      -70.070      -6.294     199.220
  H      -61.633      -8.328     200.292
  H      -69.506      -4.033     198.480
  H      -61.507      -6.590     200.301
  H      -70.121      -3.981     200.143
  P      -70.023      -5.542     203.159
  C      -70.638      -7.533     204.655
  O      -71.044      -6.276     204.153
  O      -70.224      -4.070     203.011
  O      -68.596      -5.853     203.816
  H      -68.218      -5.023     204.164
  H      -71.230      -7.763     205.546
  H      -69.578      -7.526     204.925
  H      -70.818      -8.302     203.900
  H      -68.879       0.809     199.556
  H      -68.963      -0.094     198.063
  H      -67.414       0.410     198.693

 3  4  5  6  7  8  9  10  11  12  13  23  27  28  29  30  32 0
 6-311+G(2d,p)
 ****
 34  35 0
 6-311+G(2d,p)
 ****
 1  2  14  15  16  17  18  19  20  21  22  24  25  26 0
 3-21G
 ****
 31  33  36  37  38  39  40  41  42  43  44  45  46 0
 3-21G
 ****


