%nproc=1
%NoSave
%Mem=1900MB
#P OB98/GEN NMR

erre ene a

0 1
  C      127.802    -311.266     176.042
  O      127.227    -312.422     176.655
  P      127.245    -313.819     175.875
  C      127.268    -315.552     177.795
  O      126.509    -314.931     176.764
  C      126.337    -316.307     178.750
  O      125.437    -315.404     179.436
  C      125.423    -317.292     178.031
  O      126.034    -318.435     177.471
  C      124.326    -317.520     179.057
  O      124.706    -318.499     180.024
  C      124.216    -316.124     179.712
  N      123.044    -315.377     179.255
  C      121.989    -315.282     180.157
  O      121.994    -315.821     181.262
  N      120.901    -314.570     179.730
  C      120.754    -313.989     178.506
  O      119.746    -313.383     178.165
  C      121.892    -314.144     177.586
  C      122.968    -314.820     177.994
  O      128.562    -314.227     175.308
  O      126.184    -313.573     174.692
  H      125.572    -318.232     180.385
  H      126.544    -313.981     173.880
  H      120.130    -314.485     180.373
  H      121.808    -313.699     176.602
  H      123.817    -314.944     177.333
  H      124.146    -316.218     180.803
  H      123.404    -317.875     178.587
  H      124.960    -316.763     177.186
  H      126.944    -316.805     179.508
  H      127.839    -314.798     178.340
  H      128.001    -316.227     177.340
  P      126.708    -318.447     176.016
  C      128.793    -319.820     176.718
  O      127.644    -319.745     175.903
  O      127.260    -317.159     175.505
  O      125.459    -318.867     175.095
  H      125.555    -318.429     174.228
  H      129.315    -320.754     176.498
  H      128.516    -319.814     177.774
  H      129.467    -318.986     176.504
  H      127.703    -310.427     176.699
  H      127.295    -311.061     175.122
  H      128.839    -311.445     175.846

 3  4  5  6  7  8  9  10  11  12  13  23  28  29  30  31  32 0
 6-311+G(2d,p)
 ****
 33  34 0
 6-311+G(2d,p)
 ****
 1  2  14  15  16  17  18  19  20  21  22  24  25  26  27 0
 3-21G
 ****
 35  36  37  38  39  40  41  42  43  44  45 0
 3-21G
 ****


