%nproc=1
%NoSave
%Mem=1900MB
#P OB98/GEN NMR

erre ene a

0 1
  C       74.355     -85.531     135.935
  O       75.275     -84.863     135.097
  H       74.817     -86.453     136.298
  H       73.456     -85.793     135.371
  H       74.089     -84.912     136.795
  P       74.919     -83.392     134.574
  C       76.415     -81.381     133.944
  O       76.256     -82.793     133.925
  C       77.737     -80.994     134.623
  O       77.574     -81.137     136.070
  C       78.942     -81.870     134.211
  O       80.112     -81.041     134.303
  C       78.919     -82.921     135.306
  O       80.083     -83.704     135.327
  C       78.636     -82.021     136.514
  N       78.240     -82.713     137.735
  C       79.252     -83.073     138.622
  O       80.450     -82.847     138.459
  N       78.838     -83.734     139.754
  C       77.546     -84.043     140.079
  O       77.236     -84.609     141.124
  C       76.530     -83.642     139.098
  C       76.919     -83.005     137.993
  O       74.242     -82.497     135.559
  O       73.993     -83.661     133.291
  H       73.057     -83.520     133.530
  H       79.917     -84.514     135.858
  H       79.552     -83.998     140.412
  H       75.495     -83.883     139.317
  H       76.186     -82.686     137.254
  H       79.506     -81.392     136.722
  H       78.090     -83.617     135.136
  H       78.856     -82.268     133.194
  H       77.935     -79.930     134.426
  H       75.575     -80.953     134.504
  H       76.395     -81.003     132.922
  P       80.701     -80.202     133.071
  C       81.972     -77.959     132.843
  O       81.714     -79.102     133.653
  O       79.654     -79.632     132.164
  O       81.655     -81.218     132.279
  H       81.710     -80.953     131.346
  H       82.659     -77.312     133.347
  H       81.056     -77.436     132.662
  H       82.395     -78.271     131.911

 6  7  8  9  10  11  12  13  14  15  16  27  31  32  33  34  35 0
 6-311+G(2d,p)
 ****
 36  37 0
 6-311+G(2d,p)
 ****
 1  2  3  4  5  17  18  19  20  21  22  23  24  25 0
 3-21G
 ****
 26  28  29  30  38  39  40  41  42  43  44  45 0
 3-21G
 ****


