%nproc=1
%NoSave
%Mem=1900MB
#P OB98/GEN NMR

erre ene a

0 1
  C     -145.675     126.150     -16.606
  O     -144.262     126.216     -16.801
  P     -143.260     126.150     -15.550
  C     -142.681     128.609     -15.148
  O     -143.422     127.489     -14.677
  C     -142.992     129.907     -14.392
  O     -142.748     129.752     -12.972
  C     -142.192     131.128     -14.855
  O     -143.062     132.253     -14.688
  C     -141.056     131.170     -13.851
  O     -140.416     132.438     -13.798
  C     -141.783     130.741     -12.570
  N     -140.866     130.225     -11.558
  C     -141.099     130.612     -10.238
  O     -142.006     131.402      -9.973
  N     -140.268     130.137      -9.253
  C     -139.239     129.417      -9.575
  N     -138.439     128.996      -8.558
  C     -138.905     129.056     -10.967
  C     -139.760     129.480     -11.894
  O     -141.849     125.801     -15.896
  O     -143.900     125.020     -14.608
  H     -140.002     132.611     -14.671
  H     -143.189     124.575     -14.110
  H     -138.021     128.477     -11.189
  H     -139.607     129.263     -12.945
  H     -142.334     131.586     -12.138
  H     -140.297     130.427     -14.122
  H     -141.843     131.055     -15.887
  H     -144.065     130.102     -14.508
  H     -138.687     129.287      -7.621
  H     -142.907     128.751     -16.210
  H     -137.555     128.532      -8.706
  H     -141.612     128.384     -15.075
  P     -143.831     132.921     -15.920
  C     -142.005     134.572     -16.616
  O     -142.714     133.397     -16.962
  O     -144.821     133.976     -15.545
  O     -144.544     131.700     -16.675
  H     -145.246     132.046     -17.256
  H     -141.142     134.675     -17.278
  H     -141.655     134.524     -15.580
  H     -142.654     135.444     -16.740
  H     -146.169     126.209     -17.553
  H     -145.988     126.966     -15.989
  H     -145.927     125.225     -16.130

 3  4  5  6  7  8  9  10  11  12  13  23  27  28  29  30  32 0
 6-311+G(2d,p)
 ****
 34  35 0
 6-311+G(2d,p)
 ****
 1  2  14  15  16  17  18  19  20  21  22  24  25  26 0
 3-21G
 ****
 31  33  36  37  38  39  40  41  42  43  44  45  46 0
 3-21G
 ****


