%nproc=1
%NoSave
%Mem=1900MB
#P OB98/GEN NMR

erre ene a

0 1
  C     -138.804    -383.400    -316.805
  O     -138.053    -383.184    -315.621
  P     -138.473    -384.042    -314.329
  C     -139.005    -381.819    -313.072
  O     -139.445    -383.107    -313.464
  C     -140.163    -380.822    -313.173
  O     -140.635    -380.746    -314.535
  C     -141.374    -381.181    -312.322
  O     -141.176    -380.770    -310.979
  C     -142.487    -380.422    -313.038
  O     -142.490    -379.033    -312.656
  C     -142.082    -380.588    -314.512
  N     -146.429    -382.346    -316.409
  C     -146.181    -381.220    -315.638
  N     -147.243    -380.426    -315.382
  N     -145.003    -380.901    -315.176
  C     -144.040    -381.792    -315.501
  C     -144.161    -382.950    -316.235
  C     -145.457    -383.262    -316.792
  O     -145.706    -384.193    -317.554
  N     -142.962    -383.607    -316.342
  C     -142.114    -382.830    -315.696
  N     -142.711    -381.708    -315.183
  O     -137.127    -384.102    -313.480
  O     -139.033    -385.403    -314.622
  H     -142.918    -378.942    -311.785
  H     -136.660    -384.949    -313.622
  H     -147.351    -382.534    -316.751
  H     -141.058    -383.029    -315.584
  H     -142.311    -379.688    -315.104
  H     -143.477    -380.813    -312.800
  H     -148.188    -380.622    -315.687
  H     -141.572    -382.257    -312.372
  H     -147.085    -379.600    -314.821
  H     -139.779    -379.831    -312.899
  H     -138.196    -381.497    -313.729
  H     -138.628    -381.865    -312.045
  P     -141.134    -381.912    -309.855
  C     -142.488    -380.377    -308.257
  O     -142.370    -381.649    -308.870
  O     -139.853    -381.519    -308.980
  O     -141.027    -383.304    -310.389
  H     -139.403    -382.334    -308.676
  H     -143.543    -380.171    -308.080
  H     -142.073    -379.583    -308.880
  H     -141.964    -380.390    -307.296
  H     -138.427    -382.773    -317.586
  H     -139.832    -383.165    -316.623
  H     -138.719    -384.425    -317.099

 3  4  5  6  7  8  9  10  11  12  23  26  30  31 0
 6-311+G(2d,p)
 ****
 33  35  36  37  38 0
 6-311+G(2d,p)
 ****
 1  2  13  14  15  16  17  18  19  20  21  22  24  25 0
 3-21G
 ****
 27  28  29  32  34  39  40  41  42  43  44  45  46  47  48  49 0
 3-21G
 ****


