%nproc=1
%NoSave
%Mem=1900MB
#P OB98/GEN NMR

erre ene a

0 1
  C      621.516     335.127      57.349
  O      620.137     334.863      57.552
  H      622.037     335.014      58.301
  H      621.654     336.153      56.992
  H      621.934     334.420      56.628
  P      619.178     335.082      56.280
  C      617.827     336.835      57.660
  O      617.814     335.614      56.932
  C      616.395     337.290      57.932
  O      615.747     337.670      56.699
  C      615.502     336.210      58.549
  O      615.722     336.039      59.941
  C      614.133     336.798      58.251
  O      613.856     337.868      59.171
  C      614.332     337.323      56.814
  N      613.956     336.356      55.790
  C      612.757     336.579      55.111
  O      612.047     337.551      55.400
  N      612.350     335.685      54.148
  C      613.088     334.655      53.873
  N      612.641     333.789      52.925
  C      614.381     334.379      54.538
  C      614.744     335.262      55.479
  O      618.790     333.587      55.837
  O      619.730     335.929      55.183
  H      613.745     337.456      60.052
  H      618.099     333.620      55.135
  H      614.953     333.510      54.294
  H      615.678     335.124      56.017
  H      613.756     338.245      56.655
  H      613.328     336.059      58.361
  H      615.599     335.254      58.016
  H      616.439     338.186      58.572
  H      611.730     333.966      52.517
  H      618.350     337.585      57.063
  H      613.055     332.881      52.771
  H      618.346     336.706      58.611
  P      615.827     334.542      60.497
  C      613.749     335.047      61.972
  O      615.063     334.521      61.915
  O      617.364     334.410      60.913
  O      615.406     333.472      59.532
  H      617.710     333.527      60.695
  H      613.375     334.965      62.971
  H      613.116     334.497      61.308
  H      613.764     336.076      61.680

 6  7  8  9  10  11  12  13  14  15  16  26  30  31  32  33  35 0
 6-311+G(2d,p)
 ****
 37  38 0
 6-311+G(2d,p)
 ****
 1  2  3  4  5  17  18  19  20  21  22  23  24  25 0
 3-21G
 ****
 27  28  29  34  36  39  40  41  42  43  44  45  46 0
 3-21G
 ****


