%nproc=1
%NoSave
%Mem=1900MB
#P OB98/GEN NMR

erre ene a

0 1
  C      -41.618     294.181     -95.803
  O      -41.674     293.661     -94.483
  P      -43.086     293.056     -93.999
  C      -43.608     295.095     -92.447
  O      -43.989     294.312     -93.572
  C      -44.572     296.273     -92.295
  O      -44.411     297.200     -93.386
  C      -46.044     295.876     -92.282
  O      -46.426     295.426     -90.995
  C      -46.711     297.184     -92.705
  O      -46.837     298.081     -91.586
  C      -45.722     297.727     -93.742
  N      -47.559     299.459     -98.131
  C      -47.529     300.053     -96.879
  N      -48.021     301.310     -96.802
  N      -47.054     299.472     -95.808
  C      -46.609     298.214     -96.031
  C      -46.601     297.511     -97.217
  C      -47.075     298.186     -98.402
  O      -47.027     297.741     -99.548
  N      -46.090     296.250     -97.049
  C      -45.762     296.205     -95.774
  N      -46.042     297.370     -95.118
  O      -42.716     292.350     -92.615
  O      -43.743     292.128     -94.967
  H      -47.113     298.961     -91.908
  H      -42.595     291.389     -92.739
  H      -47.917     299.965     -98.919
  H      -45.310     295.350     -95.286
  H      -45.648     298.820     -93.707
  H      -47.725     297.021     -93.088
  H      -48.419     301.811     -97.574
  H      -46.238     295.103     -93.035
  H      -48.008     301.757     -95.893
  H      -44.307     296.802     -91.365
  H      -42.596     295.477     -92.602
  H      -43.617     294.472     -91.552
  P      -47.519     294.252     -90.917
  C      -49.600     295.792     -90.687
  O      -48.895     294.854     -91.475
  O      -47.772     294.096     -89.340
  O      -47.083     292.964     -91.521
  H      -47.932     293.163     -89.123
  H      -50.156     296.458     -91.351
  H      -48.922     296.390     -90.068
  H      -50.303     295.262     -90.041
  H      -40.633     294.549     -96.000
  H      -42.324     294.979     -95.902
  H      -41.855     293.406     -96.502

 3  4  5  6  7  8  9  10  11  12  23  26  30  31 0
 6-311+G(2d,p)
 ****
 33  35  36  37  38 0
 6-311+G(2d,p)
 ****
 1  2  13  14  15  16  17  18  19  20  21  22  24  25 0
 3-21G
 ****
 27  28  29  32  34  39  40  41  42  43  44  45  46  47  48  49 0
 3-21G
 ****


