%nproc=1
%NoSave
%Mem=1900MB
#P OB98/GEN NMR

erre ene a

0 1
  C     2271.631     -28.916    1219.707
  O     2271.374     -30.256    1220.083
  H     2271.048     -28.695    1218.809
  H     2272.691     -28.782    1219.477
  H     2271.325     -28.239    1220.500
  P     2272.171     -30.813    1221.359
  C     2269.922     -31.340    1222.494
  O     2271.153     -30.634    1222.584
  C     2269.348     -31.576    1223.885
  O     2270.360     -32.229    1224.707
  C     2268.922     -30.305    1224.624
  O     2267.758     -30.584    1225.435
  C     2270.073     -30.029    1225.564
  O     2269.721     -29.220    1226.674
  C     2270.521     -31.451    1225.900
  N     2273.601     -30.469    1229.854
  C     2272.245     -30.514    1229.724
  N     2271.513     -30.803    1228.640
  C     2272.308     -31.148    1227.607
  C     2273.693     -31.170    1227.584
  C     2274.355     -30.797    1228.764
  N     2275.716     -30.721    1228.884
  N     2274.140     -31.527    1226.306
  C     2273.030     -31.722    1225.597
  N     2271.906     -31.482    1226.341
  O     2273.531     -30.224    1221.581
  O     2272.144     -32.388    1221.119
  H     2268.922     -29.630    1227.085
  H     2271.260     -32.699    1220.858
  H     2271.680     -30.251    1230.618
  H     2273.010     -32.027    1224.569
  H     2269.920     -31.898    1226.700
  H     2270.872     -29.496    1225.009
  H     2268.731     -29.453    1223.945
  H     2268.503     -32.293    1223.794
  H     2270.055     -32.284    1221.978
  H     2276.095     -30.446    1229.782
  H     2276.307     -30.962    1228.095
  H     2269.218     -30.726    1221.900
  P     2266.314     -30.304    1224.764
  C     2265.265     -32.635    1225.194
  O     2265.712     -31.698    1224.210
  O     2266.237     -29.189    1223.800
  O     2265.380     -30.047    1226.052
  H     2264.795     -29.280    1225.861
  H     2264.891     -33.512    1224.708
  H     2264.487     -32.193    1225.780
  H     2266.083     -32.902    1225.830

 6  7  8  9  10  11  12  13  14  15  25  28  32  33  34  35 0
 6-311+G(2d,p)
 ****
 36  39  40 0
 6-311+G(2d,p)
 ****
 1  2  3  4  5  16  17  18  19  20  21  22  23  24 0
 3-21G
 ****
 26  27  29  30  31  37  38  41  42  43  44  45  46  47 0
 3-21G
 ****
 48 0
 3-21G
 ****


