%nproc=1
%NoSave
%Mem=1900MB
#P OB98/GEN NMR

erre ene a

0 1
  C      399.777     -71.699     306.533
  O      399.415     -72.523     305.445
  H      399.820     -72.311     307.437
  H      399.026     -70.917     306.676
  H      400.758     -71.245     306.370
  P      399.455     -71.914     303.964
  C      401.518     -71.105     302.639
  O      400.941     -72.148     303.409
  C      402.564     -71.665     301.667
  O      403.584     -72.374     302.436
  C      401.999     -72.665     300.638
  O      402.806     -72.552     299.456
  C      402.249     -73.982     301.354
  O      402.072     -75.097     300.515
  C      403.661     -73.709     301.895
  N      404.136     -74.647     302.903
  C      404.562     -75.902     302.474
  O      404.565     -76.271     301.300
  N      404.990     -76.753     303.458
  C      405.051     -76.477     304.793
  O      405.475     -77.272     305.624
  C      404.584     -75.140     305.185
  C      404.159     -74.296     304.243
  O      398.938     -70.522     303.820
  O      398.589     -72.955     303.106
  H      397.699     -72.587     302.948
  H      401.134     -75.133     300.226
  H      405.309     -77.667     303.162
  H      404.607     -74.889     306.239
  H      403.816     -73.299     304.499
  H      404.378     -73.681     301.067
  H      401.534     -74.106     302.173
  H      400.953     -72.479     300.384
  H      403.067     -70.827     301.168
  H      401.997     -70.399     303.325
  H      400.730     -70.587     302.087
  P      402.392     -71.665     298.186
  C      401.574     -69.217     298.428
  O      402.670     -70.120     298.546
  O      401.008     -71.925     297.688
  O      403.477     -71.998     297.060
  H      403.097     -71.848     296.177
  H      401.894     -68.231     298.695
  H      400.786     -69.526     299.082
  H      401.220     -69.216     297.418

 6  7  8  9  10  11  12  13  14  15  16  27  31  32  33  34  35 0
 6-311+G(2d,p)
 ****
 36  37 0
 6-311+G(2d,p)
 ****
 1  2  3  4  5  17  18  19  20  21  22  23  24  25 0
 3-21G
 ****
 26  28  29  30  38  39  40  41  42  43  44  45 0
 3-21G
 ****


