%nproc=1
%NoSave
%Mem=1900MB
#P OB98/GEN NMR

erre ene a

0 1
  C      -86.567     -53.616    -146.628
  O      -87.046     -52.385    -147.131
  H      -85.685     -53.420    -146.011
  H      -86.274     -54.272    -147.451
  H      -87.324     -54.104    -146.009
  P      -88.399     -52.376    -147.992
  C      -89.212     -50.032    -147.321
  O      -88.697     -50.843    -148.365
  C      -88.377     -48.762    -147.165
  O      -87.118     -49.106    -146.530
  C      -88.059     -48.068    -148.493
  O      -88.104     -46.656    -148.288
  C      -86.634     -48.496    -148.782
  O      -85.939     -47.553    -149.597
  C      -86.054     -48.629    -147.375
  N      -81.036     -48.923    -146.885
  C      -81.879     -47.835    -146.783
  N      -81.302     -46.639    -146.538
  N      -83.177     -47.910    -146.912
  C      -83.621     -49.170    -147.142
  C      -82.889     -50.327    -147.266
  C      -81.451     -50.228    -147.134
  O      -80.653     -51.152    -147.228
  N      -83.701     -51.403    -147.524
  C      -84.920     -50.896    -147.559
  N      -84.923     -49.544    -147.343
  O      -89.554     -53.097    -147.377
  O      -87.972     -53.019    -149.391
  H      -86.486     -47.410    -150.400
  H      -88.239     -53.956    -149.436
  H      -80.042     -48.807    -146.786
  H      -85.826     -51.459    -147.742
  H      -85.698     -47.670    -146.978
  H      -86.635     -49.463    -149.300
  H      -80.311     -46.508    -146.409
  H      -88.746     -48.350    -149.297
  H      -81.903     -45.829    -146.434
  H      -88.901     -48.083    -146.482
  H      -89.181     -50.609    -146.390
  H      -90.253     -49.771    -147.541
  P      -89.456     -45.868    -148.637
  C      -89.155     -43.803    -147.127
  O      -89.181     -44.298    -148.461
  O      -90.690     -46.377    -147.969
  O      -89.556     -46.025    -150.232
  H      -90.498     -46.024    -150.489
  H      -88.964     -42.750    -147.141
  H      -88.382     -44.298    -146.578
  H      -90.099     -43.988    -146.659

 6  7  8  9  10  11  12  13  14  15  26  29  33  34 0
 6-311+G(2d,p)
 ****
 36  38  39  40  41 0
 6-311+G(2d,p)
 ****
 1  2  3  4  5  16  17  18  19  20  21  22  23  24  25 0
 3-21G
 ****
 27  28  30  31  32  35  37  42  43  44  45  46  47 0
 3-21G
 ****
 48  49 0
 3-21G
 ****


