%nproc=1
%NoSave
%Mem=1900MB
#P OB98/GEN NMR

erre ene a

0 1
  C     1245.537    -444.838     292.913
  O     1245.458    -444.910     294.326
  H     1245.072    -445.737     292.499
  H     1246.576    -444.792     292.597
  H     1244.975    -443.965     292.561
  P     1246.116    -443.683     295.141
  C     1248.578    -442.901     295.266
  O     1247.700    -443.991     295.102
  C     1249.929    -443.184     294.602
  O     1249.756    -443.298     293.180
  C     1250.989    -442.122     294.827
  O     1251.634    -442.308     296.080
  C     1251.942    -442.393     293.655
  O     1252.790    -443.508     294.007
  C     1250.975    -442.815     292.540
  N     1252.568    -439.921     288.599
  C     1253.239    -440.751     289.424
  N     1252.767    -441.453     290.497
  C     1251.441    -441.221     290.657
  C     1250.636    -440.404     289.888
  C     1251.237    -439.734     288.819
  N     1250.572    -438.868     287.983
  N     1249.338    -440.379     290.372
  C     1249.344    -441.257     291.364
  N     1250.604    -441.760     291.603
  O     1245.529    -443.415     296.481
  O     1245.972    -442.500     294.078
  H     1252.206    -444.299     294.023
  H     1246.173    -442.816     293.184
  H     1254.295    -440.914     289.208
  H     1248.475    -441.587     291.931
  H     1251.370    -443.645     291.932
  H     1252.577    -441.540     293.432
  H     1250.574    -441.094     294.715
  H     1250.275    -444.161     294.964
  H     1248.732    -442.671     296.334
  H     1251.120    -438.304     287.355
  H     1249.605    -438.612     288.237
  H     1248.111    -442.014     294.798
  P     1252.428    -441.103     296.811
  C     1253.649    -439.130     295.717
  O     1253.401    -440.525     295.653
  O     1253.076    -441.505     298.087
  O     1251.315    -439.957     296.969
  H     1251.649    -439.310     297.629
  H     1254.298    -438.846     294.915
  H     1254.112    -438.893     296.652
  H     1252.724    -438.599     295.632

 6  7  8  9  10  11  12  13  14  15  25  28  32  33  34  35 0
 6-311+G(2d,p)
 ****
 36  39  40 0
 6-311+G(2d,p)
 ****
 1  2  3  4  5  16  17  18  19  20  21  22  23  24 0
 3-21G
 ****
 26  27  29  30  31  37  38  41  42  43  44  45  46  47 0
 3-21G
 ****
 48 0
 3-21G
 ****


