%nproc=1
%NoSave
%Mem=1900MB
#P OB98/GEN NMR

erre ene a

0 1
  C     -340.477     179.866     -53.638
  O     -341.619     179.623     -52.851
  P     -343.114     179.795     -53.377
  C     -343.544     182.323     -52.867
  O     -343.318     181.317     -53.845
  C     -344.501     183.399     -53.395
  O     -343.844     184.118     -54.472
  C     -345.776     182.775     -53.989
  O     -346.973     183.471     -53.660
  C     -345.432     182.642     -55.468
  O     -346.573     182.515     -56.310
  C     -344.567     183.878     -55.697
  N     -343.792     184.361     -60.696
  C     -344.857     184.805     -59.935
  N     -345.919     185.278     -60.616
  N     -344.875     184.757     -58.626
  C     -343.789     184.159     -58.090
  C     -342.676     183.681     -58.743
  C     -342.649     183.768     -60.184
  O     -341.785     183.280     -60.906
  N     -341.799     183.072     -57.879
  C     -342.396     183.155     -56.708
  N     -343.620     183.775     -56.788
  O     -344.192     179.163     -52.560
  O     -343.053     179.014     -54.793
  H     -347.036     183.370     -56.304
  H     -343.929     178.599     -54.927
  H     -343.870     184.352     -61.708
  H     -342.003     182.757     -55.778
  H     -345.177     184.758     -55.907
  H     -344.848     181.725     -55.588
  H     -345.990     185.190     -61.622
  H     -345.946     181.777     -53.573
  H     -346.791     185.374     -60.105
  H     -344.717     184.116     -52.597
  H     -342.564     182.767     -52.651
  H     -343.926     181.885     -51.941
  P     -348.437     182.886     -53.405
  C     -349.680     184.124     -55.281
  O     -349.230     182.870     -54.797
  O     -349.197     184.019     -52.576
  O     -348.471     181.591     -52.662
  H     -349.758     183.601     -51.892
  H     -350.420     183.957     -56.062
  H     -348.833     184.675     -55.703
  H     -350.134     184.712     -54.476
  H     -339.598     179.679     -53.058
  H     -340.479     180.885     -53.965
  H     -340.486     179.218     -54.490

 3  4  5  6  7  8  9  10  11  12  23  26  30  31 0
 6-311+G(2d,p)
 ****
 33  35  36  37  38 0
 6-311+G(2d,p)
 ****
 1  2  13  14  15  16  17  18  19  20  21  22  24  25 0
 3-21G
 ****
 27  28  29  32  34  39  40  41  42  43  44  45  46  47  48  49 0
 3-21G
 ****


