%nproc=1
%NoSave
%Mem=1900MB
#P OB98/GEN NMR

erre ene a

0 1
  C      206.516     540.699    1463.967
  O      205.267     541.354    1463.964
  P      204.701     542.024    1465.306
  C      203.698     543.894    1463.856
  O      203.472     542.976    1464.916
  C      202.370     544.424    1463.295
  O      201.573     545.009    1464.352
  C      202.537     545.526    1462.258
  O      202.994     545.033    1461.013
  C      201.120     546.098    1462.243
  O      200.252     545.301    1461.426
  C      200.717     546.002    1463.730
  N      200.787     547.285    1464.419
  C      199.657     548.098    1464.281
  O      198.731     547.766    1463.557
  N      199.634     549.289    1464.984
  C      200.684     549.670    1465.646
  N      200.586     550.826    1466.357
  C      201.956     548.907    1465.677
  C      201.916     547.714    1465.060
  O      205.724     542.661    1466.182
  O      203.979     540.817    1466.061
  H      204.301     540.796    1466.991
  H      199.330     545.495    1461.712
  H      202.806     549.298    1466.187
  H      202.795     547.074    1465.057
  H      199.698     545.602    1463.816
  H      201.091     547.123    1461.843
  H      203.231     546.280    1462.636
  H      201.820     543.579    1462.876
  H      199.685     551.314    1466.331
  H      204.251     543.390    1463.057
  H      201.188     551.039    1467.147
  H      204.327     544.726    1464.219
  P      204.193     545.839    1460.308
  C      204.604     543.619    1459.036
  O      204.592     545.029    1458.986
  O      205.426     545.595    1461.296
  O      203.929     547.298    1460.120
  H      205.985     546.396    1461.335
  H      204.553     543.237    1458.008
  H      203.766     543.232    1459.603
  H      205.554     543.276    1459.493
  H      206.722     540.319    1462.988
  H      206.492     539.889    1464.666
  H      207.281     541.392    1464.249

 3  4  5  6  7  8  9  10  11  12  13  24  27  28  29  30  32 0
 6-311+G(2d,p)
 ****
 34  35 0
 6-311+G(2d,p)
 ****
 1  2  14  15  16  17  18  19  20  21  22  23  25  26 0
 3-21G
 ****
 31  33  36  37  38  39  40  41  42  43  44  45  46 0
 3-21G
 ****


