%nproc=1
%NoSave
%Mem=1900MB
#P OB98/GEN NMR

erre ene a

0 1
  C      608.569    -676.539     290.191
  O      609.505    -677.240     289.396
  P      609.891    -678.755     289.745
  C      612.014    -678.251     291.101
  O      611.483    -678.794     289.896
  C      613.076    -679.187     291.676
  O      612.510    -680.472     292.024
  C      614.197    -679.518     290.703
  O      615.056    -678.470     290.317
  C      614.842    -680.712     291.396
  O      615.728    -680.309     292.439
  C      613.599    -681.432     291.985
  N      613.240    -682.625     291.227
  C      613.794    -683.816     291.685
  O      614.537    -683.897     292.661
  N      613.487    -684.937     290.950
  C      612.744    -684.964     289.809
  O      612.541    -685.996     289.179
  C      612.196    -683.675     289.365
  C      612.467    -682.579     290.092
  O      609.331    -679.781     288.811
  O      609.400    -678.921     291.261
  H      616.086    -681.117     292.848
  H      609.820    -678.313     291.898
  H      613.888    -685.808     291.254
  H      611.589    -683.671     288.475
  H      612.079    -681.610     289.781
  H      613.790    -681.729     293.028
  H      615.421    -681.322     290.696
  H      613.750    -679.888     289.782
  H      613.458    -678.744     292.605
  H      611.204    -678.148     291.829
  H      612.425    -677.255     290.911
  P      615.819    -678.433     288.907
  C      617.318    -680.517     289.315
  O      617.260    -679.122     289.100
  O      615.768    -677.150     288.152
  O      615.027    -679.565     288.087
  H      615.023    -679.315     287.135
  H      618.356    -680.806     289.468
  H      616.925    -681.053     288.447
  H      616.739    -680.783     290.206
  H      608.443    -675.549     289.804
  H      608.926    -676.485     291.198
  H      607.630    -677.052     290.172

 3  4  5  6  7  8  9  10  11  12  13  23  28  29  30  31  32 0
 6-311+G(2d,p)
 ****
 33  34 0
 6-311+G(2d,p)
 ****
 1  2  14  15  16  17  18  19  20  21  22  24  25  26  27 0
 3-21G
 ****
 35  36  37  38  39  40  41  42  43  44  45 0
 3-21G
 ****


