%nproc=1
%NoSave
%Mem=1900MB
#P OB98/GEN NMR

erre ene a

0 1
  C       23.317      29.826      51.340
  O       24.232      30.730      51.965
  P       24.939      30.218      53.317
  C       27.448      30.621      52.756
  O       26.397      29.679      52.919
  C       28.764      30.061      53.293
  O       28.676      29.794      54.704
  C       29.182      28.740      52.665
  O       29.787      28.930      51.394
  C       30.205      28.243      53.678
  O       31.481      28.858      53.429
  C       29.619      28.738      55.010
  N       29.761      25.712      59.072
  C       30.673      26.654      58.638
  N       31.766      26.833      59.411
  N       30.527      27.356      57.546
  C       29.372      27.093      56.888
  C       28.392      26.185      57.216
  C       28.582      25.391      58.412
  O       27.821      24.522      58.824
  N       27.364      26.208      56.311
  C       27.705      27.147      55.452
  N       28.925      27.704      55.752
  O       24.132      28.878      53.658
  O       24.891      31.202      54.437
  H       32.057      28.640      54.188
  H       24.159      28.707      54.618
  H       29.927      25.195      59.918
  H       27.109      27.462      54.606
  H       30.389      29.169      55.659
  H       30.360      27.161      53.626
  H       31.906      26.379      60.300
  H       28.337      28.043      52.617
  H       32.427      27.545      59.127
  H       29.546      30.816      53.130
  H       27.204      31.544      53.286
  H       27.534      30.876      51.696
  P       28.918      28.535      50.104
  C       28.826      31.092      49.678
  O       28.124      29.865      49.698
  O       27.788      27.576      50.707
  O       29.694      27.872      49.016
  H       27.492      26.937      50.031
  H       29.809      30.978      49.214
  H       28.942      31.467      50.698
  H       28.248      31.817      49.099
  H       22.916      30.278      50.457
  H       22.521      29.599      52.018
  H       23.830      28.924      51.078

 3  4  5  6  7  8  9  10  11  12  23  26  30  31  33  0
 6-311+G(2d,p)
 ****
 35  36  37  38 0
 6-311+G(2d,p)
 ****
 1  2  13  14  15  16  17  18  19  20  21  22  24  25  27  28  29 0
 3-21G
 ****
 32  34  39  40  41  42  43  44  45  46  47  48  49 0
 3-21G
 ****


