%nproc=1
%NoSave
%Mem=1900MB
#P OB98/GEN NMR

erre ene a

0 1
  C     -163.485     673.281     135.456
  O     -162.339     672.754     134.822
  H     -163.287     674.318     135.741
  H     -163.705     672.701     136.360
  H     -164.352     673.263     134.791
  P     -162.491     671.450     133.913
  C     -163.850     669.299     134.370
  O     -162.877     670.215     134.864
  C     -164.309     668.322     135.454
  O     -164.629     669.057     136.665
  C     -165.572     667.563     135.057
  O     -165.328     666.368     134.318
  C     -166.192     667.240     136.413
  O     -165.683     666.008     136.951
  C     -165.753     668.422     137.292
  N     -169.128     670.464     140.551
  C     -168.332     669.346     140.716
  N     -168.485     668.677     141.876
  N     -167.488     668.925     139.809
  C     -167.513     669.645     138.661
  C     -168.269     670.759     138.379
  C     -169.157     671.260     139.406
  O     -169.867     672.255     139.322
  N     -168.065     671.197     137.084
  C     -167.249     670.296     136.574
  N     -166.824     669.385     137.512
  O     -160.981     671.107     133.491
  O     -163.349     671.615     132.691
  H     -166.269     665.732     137.686
  H     -160.971     670.697     132.610
  H     -169.740     670.755     141.287
  H     -166.893     670.286     135.545
  H     -165.419     668.090     138.282
  H     -167.278     667.128     136.335
  H     -169.189     668.903     142.567
  H     -166.267     668.208     134.507
  H     -168.070     667.749     141.954
  H     -163.484     667.644     135.705
  H     -163.376     668.757     133.551
  H     -164.699     669.842     133.952
  P     -166.302     665.932     133.132
  C     -168.876     665.419     133.032
  O     -167.664     665.409     133.761
  O     -165.613     664.588     132.573
  O     -166.497     666.950     132.051
  H     -165.079     664.788     131.778
  H     -169.662     665.026     133.642
  H     -168.770     664.816     132.155
  H     -169.113     666.423     132.748

 6  7  8  9  10  11  12  13  14  15  26  29  33  34 0
 6-311+G(2d,p)
 ****
 36  38  39  40  41 0
 6-311+G(2d,p)
 ****
 1  2  3  4  5  16  17  18  19  20  21  22  23  24  25 0
 3-21G
 ****
 27  28  30  31  32  35  37  42  43  44  45  46  47 0
 3-21G
 ****
 48  49 0
 3-21G
 ****


