%nproc=1
%NoSave
%Mem=1900MB
#P OB98/GEN NMR

erre ene a

0 1
  C       23.852      21.311    -118.270
  O       25.067      20.728    -117.843
  H       23.056      20.567    -118.173
  H       23.923      21.606    -119.320
  H       23.599      22.177    -117.653
  P       26.385      21.640    -117.791
  C       26.626      21.172    -115.275
  O       27.256      21.121    -116.546
  C       27.364      20.289    -114.272
  O       26.987      18.907    -114.501
  C       28.890      20.384    -114.375
  O       29.439      20.314    -113.060
  C       29.268      19.137    -115.152
  O       30.598      18.704    -114.868
  C       28.195      18.148    -114.700
  N       28.421      13.161    -115.477
  C       28.623      13.894    -114.324
  N       28.959      13.201    -113.216
  N       28.507      15.195    -114.264
  C       28.152      15.757    -115.445
  C       27.926      15.143    -116.652
  C       28.070      13.703    -116.711
  O       27.918      13.002    -117.704
  N       27.611      16.059    -117.625
  C       27.650      17.224    -117.005
  N       27.984      17.095    -115.683
  O       26.145      23.116    -117.804
  O       27.236      21.165    -119.058
  H       31.168      19.501    -114.886
  H       27.129      21.790    -119.800
  H       28.532      12.162    -115.471
  H       27.455      18.185    -117.465
  H       28.454      17.653    -113.756
  H       29.193      19.334    -116.229
  H       29.049      12.198    -113.183
  H       29.228      21.298    -114.872
  H       29.089      13.715    -112.351
  H       27.022      20.548    -113.262
  H       25.594      20.819    -115.388
  H       26.607      22.209    -114.919
  P       30.957      20.778    -112.830
  C       30.367      22.795    -111.341
  O       31.039      21.543    -111.423
  O       31.595      21.485    -113.978
  O       31.705      19.393    -112.515
  H       32.631      19.460    -112.822
  H       30.494      23.204    -110.360
  H       29.325      22.654    -111.537
  H       30.778      23.468    -112.064

 6  7  8  9  10  11  12  13  14  15  26  29  33  34 0
 6-311+G(2d,p)
 ****
 36  38  39  40  41 0
 6-311+G(2d,p)
 ****
 1  2  3  4  5  16  17  18  19  20  21  22  23  24  25 0
 3-21G
 ****
 27  28  30  31  32  35  37  42  43  44  45  46  47 0
 3-21G
 ****
 48  49 0
 3-21G
 ****


