%nproc=1
%NoSave
%Mem=1900MB
#P OB98/GEN NMR

erre ene a

0 1
  C      734.218     387.081    1548.038
  O      733.721     386.607    1546.778
  P      734.535     386.657    1545.400
  C      734.959     384.046    1545.330
  O      735.481     385.365    1545.345
  C      736.058     383.005    1545.142
  O      736.511     383.055    1543.735
  C      737.309     383.271    1546.012
  O      737.831     382.093    1546.593
  C      738.212     384.066    1545.099
  O      739.585     384.051    1545.487
  C      737.896     383.433    1543.736
  N      740.939     384.665    1539.782
  C      741.125     383.730    1540.779
  N      742.296     383.040    1540.773
  N      740.284     383.505    1541.747
  C      739.215     384.331    1541.723
  C      738.883     385.298    1540.776
  C      739.820     385.484    1539.692
  O      739.693     386.281    1538.771
  N      737.684     385.923    1541.079
  C      737.304     385.336    1542.167
  N      738.145     384.364    1542.627
  O      735.136     387.970    1545.015
  O      733.379     386.295    1544.314
  H      740.020     384.743    1544.937
  H      733.640     386.779    1543.499
  H      741.635     384.775    1539.048
  H      736.356     385.582    1542.698
  H      738.485     382.551    1543.536
  H      737.892     385.115    1545.112
  H      743.057     383.239    1540.099
  H      737.037     383.879    1546.888
  H      742.540     382.542    1541.629
  H      735.633     381.988    1545.318
  H      734.246     384.018    1544.523
  H      734.389     383.866    1546.265
  P      737.431     381.353    1547.988
  C      736.552     379.203    1546.888
  O      736.208     380.373    1547.659
  O      736.690     382.521    1548.838
  O      738.571     380.762    1548.736
  H      737.196     382.633    1549.654
  H      735.599     378.753    1546.509
  H      737.051     378.468    1547.526
  H      737.147     379.477    1546.031
  H      733.476     386.930    1548.794
  H      734.443     388.124    1547.963
  H      735.106     386.542    1548.297

 3  4  5  6  7  8  9  10  11  12  23  26  30  31 0
 6-311+G(2d,p)
 ****
 33  35  36  37  38 0
 6-311+G(2d,p)
 ****
 1  2  13  14  15  16  17  18  19  20  21  22  24  25 0
 3-21G
 ****
 27  28  29  32  34  39  40  41  42  43  44  45  46  47  48  49 0
 3-21G
 ****


