%nproc=1
%NoSave
%Mem=1900MB
#P OB98/GEN NMR

erre ene a

0 1
  C     -184.008     246.908    -431.104
  O     -184.921     246.984    -430.027
  H     -184.049     245.916    -431.556
  H     -184.291     247.650    -431.856
  H     -182.991     247.123    -430.763
  P     -184.585     246.098    -428.733
  C     -184.148     248.017    -427.035
  O     -183.589     246.989    -427.841
  C     -183.042     248.879    -426.426
  O     -182.141     248.022    -425.677
  C     -182.208     249.629    -427.471
  O     -181.893     250.927    -426.964
  C     -180.943     248.794    -427.579
  O     -179.832     249.557    -428.034
  C     -180.804     248.270    -426.153
  N     -176.087     246.407    -425.568
  C     -176.581     247.659    -425.469
  N     -177.857     248.071    -425.635
  C     -178.664     247.024    -425.882
  C     -178.305     245.694    -426.013
  C     -176.941     245.395    -425.853
  N     -176.422     244.128    -425.986
  N     -179.412     244.920    -426.304
  C     -180.418     245.771    -426.348
  N     -180.014     247.053    -426.103
  O     -183.630     244.959    -429.337
  O     -185.758     245.522    -428.017
  H     -179.069     248.952    -428.146
  H     -184.175     244.278    -429.774
  H     -175.858     248.434    -425.234
  H     -181.447     245.514    -426.558
  H     -180.325     248.996    -425.485
  H     -181.104     247.970    -428.284
  H     -182.720     249.727    -428.430
  H     -183.492     249.571    -425.707
  H     -184.737     247.559    -426.234
  H     -175.425     244.014    -425.912
  H     -177.033     243.372    -426.259
  H     -184.805     248.640    -427.651
  P     -182.691     252.165    -427.602
  C     -184.517     252.336    -425.771
  O     -184.224     252.079    -427.137
  O     -182.746     251.806    -429.161
  O     -182.031     253.485    -427.369
  H     -182.453     252.572    -429.689
  H     -185.571     252.243    -425.609
  H     -184.203     253.328    -425.519
  H     -183.998     251.631    -425.156

 6  7  8  9  10  11  12  13  14  15  25  28  32  33  34  35 0
 6-311+G(2d,p)
 ****
 36  39  40 0
 6-311+G(2d,p)
 ****
 1  2  3  4  5  16  17  18  19  20  21  22  23  24 0
 3-21G
 ****
 26  27  29  30  31  37  38  41  42  43  44  45  46  47 0
 3-21G
 ****
 48 0
 3-21G
 ****


