%nproc=1
%NoSave
%Mem=1900MB
#P OB98/GEN NMR

erre ene a

0 1
  C      -21.562     113.953    -103.525
  O      -22.020     114.892    -104.477
  P      -21.506     114.822    -105.993
  C      -19.974     116.602    -107.039
  O      -20.085     115.560    -106.076
  C      -20.380     117.941    -106.427
  O      -19.844     118.077    -105.091
  C      -19.863     119.152    -107.185
  O      -20.558     119.355    -108.403
  C      -20.049     120.249    -106.147
  O      -21.412     120.704    -106.120
  C      -19.709     119.499    -104.839
  N      -18.382     119.825    -104.340
  C      -18.280     121.003    -103.597
  O      -19.253     121.745    -103.458
  N      -17.065     121.317    -103.030
  C      -16.026     120.590    -103.295
  N      -14.868     120.913    -102.660
  C      -16.063     119.429    -104.208
  C      -17.266     119.094    -104.673
  O      -22.497     115.255    -107.022
  O      -21.115     113.281    -106.199
  H      -21.538     112.956    -107.016
  H      -21.505     121.248    -105.314
  H      -15.154     118.898    -104.449
  H      -17.390     118.242    -105.333
  H      -20.447     119.735    -104.064
  H      -19.420     121.123    -106.341
  H      -18.793     119.027    -107.394
  H      -21.476     117.968    -106.362
  H      -14.885     121.705    -102.026
  H      -20.632     116.368    -107.883
  H      -14.110     120.248    -102.535
  H      -18.945     116.643    -107.409
  P      -20.142     120.640    -109.269
  C      -21.687     122.719    -109.299
  O      -20.779     121.925    -108.559
  O      -21.007     120.476    -110.608
  O      -18.684     120.739    -109.574
  H      -20.489     120.789    -111.373
  H      -22.278     123.316    -108.600
  H      -22.362     122.103    -109.896
  H      -21.129     123.393    -109.954
  H      -22.012     114.158    -102.576
  H      -20.498     114.024    -103.438
  H      -21.829     112.966    -103.840

 3  4  5  6  7  8  9  10  11  12  13  24  27  28  29  30  32 0
 6-311+G(2d,p)
 ****
 34  35 0
 6-311+G(2d,p)
 ****
 1  2  14  15  16  17  18  19  20  21  22  23  25  26 0
 3-21G
 ****
 31  33  36  37  38  39  40  41  42  43  44  45  46 0
 3-21G
 ****


