%nproc=1
%NoSave
%Mem=1900MB
#P OB98/GEN NMR

erre ene a

0 1
  C     -454.550    -254.493    -908.868
  O     -454.658    -255.798    -908.330
  H     -453.501    -254.297    -909.097
  H     -454.897    -253.761    -908.136
  H     -455.137    -254.415    -909.784
  P     -456.135    -256.299    -907.934
  C     -455.306    -258.759    -907.726
  O     -455.951    -257.651    -907.096
  C     -454.447    -259.499    -906.703
  O     -453.326    -258.664    -906.310
  C     -455.177    -259.841    -905.410
  O     -456.020    -260.969    -905.544
  C     -454.009    -260.063    -904.466
  O     -453.482    -261.384    -904.580
  C     -452.974    -259.036    -904.951
  N     -450.655    -256.843    -900.967
  C     -450.404    -257.991    -901.635
  N     -451.071    -258.496    -902.695
  C     -452.052    -257.672    -903.083
  C     -452.419    -256.464    -902.502
  C     -451.667    -256.036    -901.393
  N     -451.920    -254.886    -900.702
  N     -453.508    -255.928    -903.151
  C     -453.792    -256.776    -904.110
  N     -452.939    -257.844    -904.114
  O     -456.730    -256.799    -909.340
  O     -457.003    -255.263    -907.301
  H     -452.655    -261.399    -904.053
  H     -457.309    -256.107    -909.708
  H     -449.591    -258.588    -901.257
  H     -454.609    -256.676    -904.833
  H     -451.962    -259.449    -904.984
  H     -454.316    -259.913    -903.425
  H     -455.753    -258.962    -905.065
  H     -454.043    -260.412    -907.172
  H     -454.668    -258.395    -908.538
  H     -456.070    -259.422    -908.147
  H     -451.383    -254.684    -899.871
  H     -452.746    -254.351    -900.938
  P     -457.226    -261.126    -904.497
  C     -457.263    -263.625    -905.251
  O     -457.385    -262.696    -904.188
  O     -458.536    -260.771    -905.362
  O     -457.108    -260.266    -903.288
  H     -459.187    -260.314    -904.800
  H     -457.395    -264.618    -904.874
  H     -456.292    -263.537    -905.692
  H     -458.010    -263.422    -905.990

 6  7  8  9  10  11  12  13  14  15  25  28  32  33  34  35 0
 6-311+G(2d,p)
 ****
 36  37  40 0
 6-311+G(2d,p)
 ****
 1  2  3  4  5  16  17  18  19  20  21  22  23  24 0
 3-21G
 ****
 26  27  29  30  31  38  39 41  42  43  44  45  46  47  48 0
 3-21G
 ****


