%nproc=1
%NoSave
%Mem=1900MB
#P OB98/GEN NMR

erre ene a

0 1
  C      118.286      68.433     321.351
  O      117.849      68.089     320.052
  H      117.411      68.561     321.991
  H      118.842      69.374     321.332
  H      118.911      67.639     321.770
  P      118.953      67.848     318.911
  C      118.165      69.909     317.545
  O      119.212      69.313     318.299
  C      118.663      71.173     316.854
  O      118.917      72.228     317.807
  C      119.976      71.014     316.099
  O      119.860      70.289     314.884
  C      120.325      72.471     315.867
  O      119.505      73.006     314.812
  C      119.948      73.084     317.237
  N      121.089      73.185     318.147
  C      121.658      74.455     318.304
  O      121.206      75.424     317.692
  N      122.749      74.596     319.130
  C      123.245      73.554     319.728
  N      124.328      73.750     320.526
  C      122.691      72.195     319.572
  C      121.631      72.083     318.779
  O      118.640      66.781     317.911
  O      120.314      67.591     319.718
  H      119.559      73.978     314.874
  H      121.028      67.425     319.057
  H      123.163      71.356     320.067
  H      121.169      71.113     318.612
  H      119.506      74.082     317.113
  H      121.368      72.628     315.579
  H      120.749      70.569     316.743
  H      117.858      71.523     316.191
  H      124.689      74.691     320.612
  H      117.340      70.133     318.231
  H      124.830      72.988     320.967
  H      117.810      69.210     316.782
  P      121.226      69.855     314.160
  C      120.699      71.311     312.053
  O      121.580      71.031     313.130
  O      120.770      68.637     313.224
  O      122.347      69.484     315.079
  H      120.976      67.785     313.650
  H      121.091      72.120     311.473
  H      119.739      71.582     312.439
  H      120.603      70.442     311.435

 6  7  8  9  10  11  12  13  14  15  16  26  30  31  32  33  35 0
 6-311+G(2d,p)
 ****
 37  38 0
 6-311+G(2d,p)
 ****
 1  2  3  4  5  17  18  19  20  21  22  23  24  25 0
 3-21G
 ****
 27  28  29  34  36  39  40  41  42  43  44  45  46 0
 3-21G
 ****


