%nproc=1
%NoSave
%Mem=1900MB
#P OB98/GEN NMR

erre ene a

0 1
  C     -108.867    -275.738     141.059
  O     -108.719    -274.579     140.266
  H     -107.902    -275.978     141.512
  H     -109.177    -276.578     140.432
  H     -109.596    -275.581     141.856
  P     -110.031    -273.839     139.721
  C     -110.699    -272.379     141.740
  O     -110.088    -272.414     140.459
  C     -110.430    -271.043     142.438
  O     -111.234    -270.975     143.649
  C     -108.963    -270.840     142.848
  O     -108.692    -269.433     142.791
  C     -108.979    -271.314     144.289
  O     -107.849    -270.858     144.998
  C     -110.334    -270.772     144.753
  N     -110.806    -271.419     145.977
  C     -110.654    -270.703     147.156
  O     -110.123    -269.592     147.209
  N     -111.092    -271.319     148.296
  C     -111.598    -272.584     148.371
  O     -111.946    -273.101     149.425
  C     -111.693    -273.313     147.098
  C     -111.303    -272.706     145.975
  O     -111.295    -274.629     139.792
  O     -109.662    -273.436     138.216
  H     -107.876    -269.880     145.087
  H     -110.467    -273.429     137.665
  H     -110.998    -270.809     149.159
  H     -112.082    -274.321     147.125
  H     -111.361    -273.216     145.018
  H     -110.272    -269.693     144.944
  H     -108.971    -272.408     144.335
  H     -108.259    -271.391     142.223
  H     -110.771    -270.232     141.783
  H     -110.282    -273.200     142.334
  H     -111.779    -272.532     141.633
  P     -107.581    -268.820     141.813
  C     -108.873    -267.583     139.957
  O     -108.146    -267.458     141.176
  O     -107.045    -269.788     140.805
  O     -106.414    -268.315     142.787
  H     -105.559    -268.342     142.319
  H     -109.196    -266.616     139.633
  H     -109.726    -268.210     140.113
  H     -108.243    -268.018     139.209

 6  7  8  9  10  11  12  13  14  15  16  26  31  32  33  34  35 0
 6-311+G(2d,p)
 ****
 36  37 0
 6-311+G(2d,p)
 ****
 1  2  3  4  5  17  18  19  20  21  22  23  24  25 0
 3-21G
 ****
 27  28  29  30  38  39  40  41  42  43  44  45 0
 3-21G
 ****


