%nproc=1
%NoSave
%Mem=1900MB
#P OB98/GEN NMR

erre ene a

0 1
  C      683.048    -445.498    -354.491
  O      684.454    -445.652    -354.534
  H      682.781    -444.562    -354.991
  H      682.729    -445.436    -353.449
  H      682.546    -446.329    -354.990
  P      685.042    -447.107    -354.219
  C      687.359    -448.024    -353.474
  O      686.517    -446.889    -353.611
  C      688.792    -447.591    -353.168
  O      689.248    -446.707    -354.239
  C      688.950    -446.831    -351.843
  O      690.198    -447.200    -351.242
  C      689.044    -445.386    -352.288
  O      689.703    -444.569    -351.329
  C      689.806    -445.544    -353.595
  N      692.029    -441.169    -354.672
  C      692.475    -442.249    -353.934
  N      693.683    -442.132    -353.342
  N      691.797    -443.366    -353.793
  C      690.616    -443.354    -354.456
  C      690.058    -442.353    -355.210
  C      690.814    -441.123    -355.349
  O      690.449    -440.124    -355.966
  N      688.813    -442.718    -355.667
  C      688.614    -443.926    -355.168
  N      689.679    -444.353    -354.425
  O      685.325    -447.696    -355.685
  O      684.149    -448.000    -353.426
  H      690.593    -444.937    -351.169
  H      684.565    -448.231    -355.979
  H      692.579    -440.330    -354.730
  H      687.718    -444.518    -355.300
  H      690.882    -445.715    -353.445
  H      688.045    -444.981    -352.456
  H      694.281    -441.318    -353.427
  H      688.137    -447.000    -351.126
  H      694.045    -442.929    -352.836
  H      689.436    -448.477    -353.183
  H      687.351    -448.597    -354.413
  H      686.973    -448.664    -352.673
  P      690.201    -448.381    -350.160
  C      691.944    -450.119    -349.291
  O      691.713    -448.866    -349.925
  O      689.544    -449.608    -350.949
  O      689.433    -448.072    -348.920
  H      689.014    -450.152    -350.344
  H      692.997    -450.290    -349.212
  H      691.498    -450.900    -349.871
  H      691.510    -450.109    -348.313

 6  7  8  9  10  11  12  13  14  15  26  29  33  34 0
 6-311+G(2d,p)
 ****
 36  38  39  40  41 0
 6-311+G(2d,p)
 ****
 1  2  3  4  5  16  17  18  19  20  21  22  23  24  25 0
 3-21G
 ****
 27  28  30  31  32  35  37  42  43  44  45  46  47 0
 3-21G
 ****
 48  49 0
 3-21G
 ****


