%nproc=1
%NoSave
%Mem=1900MB
#P OB98/GEN NMR

erre ene a

0 1
  C     -126.150    -142.464    -260.657
  O     -125.396    -141.627    -259.775
  P     -124.531    -140.448    -260.439
  C     -126.487    -138.720    -260.687
  O     -125.280    -139.086    -260.038
  C     -126.574    -137.198    -260.811
  O     -127.724    -136.816    -261.604
  C     -126.739    -136.476    -259.481
  O     -125.524    -136.452    -258.750
  C     -127.233    -135.113    -259.956
  O     -126.127    -134.310    -260.396
  C     -128.120    -135.496    -261.157
  N     -129.545    -135.437    -260.859
  C     -130.349    -134.862    -261.838
  O     -129.903    -134.407    -262.890
  N     -131.687    -134.815    -261.561
  C     -132.283    -135.246    -260.411
  O     -133.492    -135.185    -260.225
  C     -131.380    -135.797    -259.393
  C     -130.070    -135.869    -259.656
  O     -124.875    -140.648    -261.988
  O     -123.084    -140.520    -260.096
  H     -125.791    -140.943    -262.140
  H     -125.700    -134.805    -261.124
  H     -132.291    -134.415    -262.266
  H     -131.815    -136.127    -258.457
  H     -129.388    -136.270    -258.915
  H     -127.924    -134.822    -262.002
  H     -127.749    -134.559    -259.167
  H     -127.521    -136.967    -258.887
  H     -125.670    -136.847    -261.323
  H     -127.346    -139.083    -260.112
  H     -126.520    -139.198    -261.670
  P     -125.546    -137.121    -257.291
  C     -125.387    -139.702    -257.675
  O     -124.719    -138.492    -257.407
  O     -127.071    -137.595    -257.187
  O     -125.108    -136.197    -256.200
  H     -127.391    -138.020    -257.997
  H     -124.660    -140.428    -258.058
  H     -126.176    -139.570    -258.420
  H     -125.818    -140.095    -256.750
  H     -126.675    -143.202    -260.087
  H     -125.487    -142.949    -261.343
  H     -126.852    -141.868    -261.201

 3  4  5  6  7  8  9  10  11  12  13  24  28  29  30  31  32 0
 6-311+G(2d,p)
 ****
 33  34 0
 6-311+G(2d,p)
 ****
 1  2  14  15  16  17  18  19  20  21  22  23  25  26  27 0
 3-21G
 ****
 35  36  37  38  39  40  41  42  43  44  45 0
 3-21G
 ****


