%nproc=1
%NoSave
%Mem=1900MB
#P OB98/GEN NMR

erre ene a

0 1
  C     -478.078    -231.644     -72.378
  O     -477.798    -232.999     -72.072
  P     -476.246    -233.411     -71.953
  C     -476.712    -235.022     -73.959
  O     -475.850    -234.069     -73.361
  C     -475.899    -235.983     -74.824
  O     -475.435    -235.316     -76.014
  C     -474.661    -236.546     -74.141
  O     -475.008    -237.632     -73.303
  C     -473.804    -236.941     -75.338
  O     -474.218    -238.215     -75.869
  C     -474.101    -235.806     -76.329
  N     -469.831    -233.971     -78.326
  C     -470.434    -235.206     -78.492
  N     -469.830    -236.054     -79.352
  N     -471.527    -235.572     -77.875
  C     -472.014    -234.625     -77.038
  C     -471.501    -233.377     -76.780
  C     -470.321    -232.964     -77.504
  O     -469.807    -231.852     -77.468
  N     -472.256    -232.705     -75.851
  C     -473.240    -233.540     -75.578
  N     -473.152    -234.709     -76.285
  O     -476.279    -234.648     -70.940
  O     -475.329    -232.315     -71.503
  H     -473.569    -238.505     -76.533
  H     -476.047    -234.357     -70.035
  H     -469.000    -233.742     -78.838
  H     -474.048    -233.335     -74.892
  H     -474.125    -236.164     -77.368
  H     -472.749    -237.039     -75.075
  H     -468.976    -235.855     -79.842
  H     -474.150    -235.759     -73.567
  H     -470.256    -236.971     -79.484
  H     -476.566    -236.800     -75.138
  H     -477.447    -234.503     -74.582
  H     -477.248    -235.566     -73.172
  P     -474.368    -237.667     -71.831
  C     -473.258    -239.921     -72.491
  O     -473.106    -238.648     -71.883
  O     -475.453    -238.474     -70.977
  O     -474.107    -236.316     -71.241
  H     -475.499    -238.108     -70.071
  H     -472.298    -240.219     -72.916
  H     -474.010    -239.898     -73.285
  H     -473.558    -240.647     -71.730
  H     -479.137    -231.501     -72.428
  H     -477.639    -231.393     -73.321
  H     -477.669    -231.014     -71.616

 3  4  5  6  7  8  9  10  11  12  23  26  30  31 0
 6-311+G(2d,p)
 ****
 33  35  36  37  38 0
 6-311+G(2d,p)
 ****
 1  2  13  14  15  16  17  18  19  20  21  22  24  25 0
 3-21G
 ****
 27  28  29  32  34  39  40  41  42  43  44  45  46  47  48  49 0
 3-21G
 ****


