%nproc=1
%NoSave
%Mem=1900MB
#P OB98/GEN NMR

erre ene a

0 1
  C      109.610    -224.092    -427.714
  O      108.197    -224.124    -427.466
  P      107.717    -223.810    -425.956
  C      106.058    -225.802    -426.048
  O      106.247    -224.424    -425.754
  C      104.784    -226.042    -426.881
  O      103.613    -225.545    -426.185
  C      104.827    -225.378    -428.269
  O      104.111    -226.227    -429.160
  C      104.027    -224.101    -428.044
  O      103.543    -223.582    -429.277
  C      102.941    -224.611    -427.062
  N      102.297    -223.530    -426.328
  C      100.938    -223.674    -426.040
  O      100.301    -224.651    -426.474
  N      100.298    -222.702    -425.306
  C      100.952    -221.642    -424.934
  N      100.279    -220.714    -424.217
  C      102.383    -221.425    -425.261
  C      102.978    -222.390    -425.934
  O      107.473    -222.225    -425.967
  O      108.727    -224.202    -424.921
  H      102.902    -224.228    -429.665
  H      107.924    -221.812    -425.212
  H      102.893    -220.510    -424.952
  H      104.022    -222.318    -426.226
  H      102.163    -225.160    -427.611
  H      104.647    -223.332    -427.563
  H      105.837    -225.205    -428.632
  H      104.670    -227.120    -427.001
  H       99.304    -220.895    -424.004
  H      105.988    -226.365    -425.116
  H      100.682    -219.850    -423.883
  H      106.943    -226.174    -426.567
  P      104.878    -227.486    -429.777
  C      103.811    -227.050    -432.083
  O      103.960    -227.980    -431.000
  O      104.534    -228.632    -428.681
  O      106.347    -227.385    -430.031
  H      105.019    -229.445    -428.905
  H      103.272    -227.549    -432.887
  H      104.789    -226.743    -432.448
  H      103.219    -226.182    -431.751
  H      109.797    -224.315    -428.744
  H      110.097    -224.819    -427.098
  H      109.990    -223.118    -427.485

 3  4  5  6  7  8  9  10  11  12  13  21  23  27  28  29  30  32 0
 6-311+G(2d,p)
 ****
 34  35 0
 6-311+G(2d,p)
 ****
 1  2  14  15  16  17  18  19  20  22  24  25  26 0
 3-21G
 ****
 31  33  36  37  38  39  40  41  42  43  44  45  46 0
 3-21G
 ****


