%nproc=1
%NoSave
%Mem=1900MB
#P OB98/GEN NMR

erre ene a

0 1
  C       67.896      24.718    -104.079
  O       69.027      24.349    -103.308
  P       69.316      22.783    -103.107
  C       67.866      20.853    -102.061
  O       68.144      22.241    -102.157
  C       66.852      20.596    -100.943
  O       67.495      20.730     -99.656
  C       65.679      21.567    -100.914
  O       64.719      21.266    -101.913
  C       65.184      21.389     -99.483
  O       64.371      20.208     -99.379
  C       66.506      21.195     -98.712
  N       66.957      22.404     -98.026
  C       66.518      22.567     -96.716
  O       65.792      21.756     -96.142
  N       66.928      23.714     -96.088
  C       67.663      24.719     -96.648
  O       67.966      25.745     -96.055
  C       68.070      24.504     -98.047
  C       67.704      23.376     -98.660
  O       70.609      22.842    -102.167
  O       69.500      22.052    -104.392
  H       70.633      23.657    -101.635
  H       63.502      20.436     -99.765
  H       66.642      23.844     -95.129
  H       68.645      25.284     -98.528
  H       67.987      23.206     -99.692
  H       66.397      20.396     -97.967
  H       64.579      22.236     -99.137
  H       66.041      22.594    -101.050
  H       66.493      19.563    -101.038
  H       68.793      20.318    -101.846
  H       67.473      20.503    -103.022
  P       63.941      22.518    -102.564
  C       62.684      24.557    -101.518
  O       63.182      23.248    -101.357
  O       62.777      21.773    -103.373
  O       64.813      23.397    -103.400
  H       62.380      21.040    -102.875
  H       61.917      24.737    -100.759
  H       62.241      24.697    -102.508
  H       63.494      25.275    -101.377
  H       67.830      25.785    -104.127
  H       67.011      24.326    -103.624
  H       67.994      24.322    -105.068

 3  4  5  6  7  8  9  10  11  12  13  24  28  29  30  31  32 0
 6-311+G(2d,p)
 ****
 33  34 0
 6-311+G(2d,p)
 ****
 1  2  14  15  16  17  18  19  20  21  22  23  25  26  27 0
 3-21G
 ****
 35  36  37  38  39  40  41  42  43  44  45 0
 3-21G
 ****


