%nproc=1
%NoSave
%Mem=1900MB
#P OB98/GEN NMR

erre ene a

0 1
  C     -405.525      77.775     189.770
  O     -405.605      76.466     190.359
  P     -406.300      75.308     189.485
  C     -407.986      74.952     191.455
  O     -407.791      75.143     190.061
  C     -409.478      74.911     191.800
  O     -410.090      73.720     191.201
  C     -409.791      74.886     193.307
  O     -410.969      75.678     193.494
  C     -410.078      73.420     193.577
  O     -410.859      73.242     194.756
  C     -410.784      73.032     192.260
  N     -410.813      71.582     192.035
  C     -411.922      70.887     192.516
  O     -412.818      71.427     193.150
  N     -411.931      69.543     192.255
  C     -410.942      68.831     191.658
  O     -411.005      67.627     191.456
  C     -409.736      69.603     191.285
  C     -409.735      70.911     191.489
  O     -405.521      74.011     190.004
  O     -406.198      75.559     188.005
  H     -405.320      74.037     190.959
  H     -411.098      72.289     194.833
  H     -412.753      69.027     192.549
  H     -408.898      69.057     190.851
  H     -408.851      71.510     191.241
  H     -411.822      73.390     192.263
  H     -409.145      72.866     193.686
  H     -408.970      75.294     193.915
  H     -409.952      75.791     191.331
  H     -407.518      75.768     192.015
  H     -407.484      74.016     191.765
  P     -410.807      77.173     194.080
  C     -410.383      76.855     196.650
  O     -409.848      77.065     195.361
  O     -412.261      77.382     194.736
  O     -410.478      78.210     193.063
  H     -412.541      76.623     195.272
  H     -409.577      76.580     197.331
  H     -411.117      76.052     196.641
  H     -410.859      77.783     197.017
  H     -405.044      78.444     190.452
  H     -406.511      78.131     189.557
  H     -404.960      77.724     188.863

 3  4  5  6  7  8  9  10  11  12  13  24  28  29  30  31  32 0
 6-311+G(2d,p)
 ****
 33  34 0
 6-311+G(2d,p)
 ****
 1  2  14  15  16  17  18  19  20  21  22  23  25  26  27 0
 3-21G
 ****
 35  36  37  38  39  40  41  42  43  44  45 0
 3-21G
 ****


