%nproc=1
%NoSave
%Mem=1900MB
#P OB98/GEN NMR

erre ene a

0 1
  C     -562.107     164.255     291.691
  O     -561.299     164.245     292.851
  H     -561.641     164.901     290.943
  H     -563.100     164.649     291.925
  H     -562.193     163.243     291.282
  P     -561.854     163.395     294.095
  C     -563.989     163.739     295.526
  O     -563.414     163.747     294.226
  C     -565.229     164.629     295.568
  O     -564.872     166.011     295.354
  C     -566.289     164.281     294.530
  O     -567.116     163.226     294.984
  C     -567.033     165.605     294.414
  O     -567.967     165.770     295.501
  C     -565.893     166.626     294.519
  N     -565.394     170.453     291.260
  C     -566.123     170.365     292.426
  N     -566.854     171.455     292.770
  N     -566.147     169.308     293.194
  C     -565.422     168.276     292.700
  C     -564.656     168.233     291.557
  C     -564.596     169.435     290.747
  O     -563.904     169.601     289.747
  N     -564.048     167.014     291.407
  C     -564.475     166.311     292.443
  N     -565.309     167.033     293.251
  O     -561.203     164.123     295.366
  O     -561.518     161.942     294.080
  H     -568.540     166.533     295.319
  H     -560.961     163.448     296.027
  H     -565.387     171.302     290.725
  H     -564.197     165.286     292.648
  H     -566.209     167.544     295.024
  H     -567.621     165.655     293.495
  H     -567.100     172.162     292.096
  H     -565.829     164.037     293.565
  H     -567.444     171.361     293.585
  H     -565.647     164.561     296.582
  H     -563.249     164.108     296.245
  H     -564.261     162.715     295.793
  P     -567.574     162.112     293.924
  C     -569.628     161.952     292.343
  O     -568.642     162.788     292.929
  O     -568.467     161.122     294.811
  O     -566.457     161.380     293.265
  H     -567.970     160.299     294.988
  H     -570.262     162.538     291.710
  H     -570.215     161.498     293.114
  H     -569.151     161.190     291.763

 6  7  8  9  10  11  12  13  14  15  26  29  33  34 0
 6-311+G(2d,p)
 ****
 36  38  39  40  41 0
 6-311+G(2d,p)
 ****
 1  2  3  4  5  16  17  18  19  20  21  22  23  24  25 0
 3-21G
 ****
 27  28  30  31  32  35  37  42  43  44  45  46  47 0
 3-21G
 ****
 48  49 0
 3-21G
 ****


