%nproc=1
%NoSave
%Mem=1900MB
#P OB98/GEN NMR

erre ene a

0 1
  C       -5.360     107.237     -24.150
  O       -4.009     106.866     -24.315
  H       -5.990     106.491     -24.639
  H       -5.535     108.209     -24.621
  H       -5.631     107.287     -23.093
  P       -2.898     107.573     -23.406
  C       -1.904     109.211     -25.134
  O       -2.702     109.062     -23.971
  C       -1.866     110.673     -25.595
  O       -3.017     110.948     -26.430
  C       -1.955     111.615     -24.392
  O       -1.302     112.858     -24.633
  C       -3.451     111.854     -24.261
  O       -3.765     113.048     -23.551
  C       -3.872     111.869     -25.729
  N       -8.411     113.266     -27.573
  C       -7.254     114.007     -27.448
  N       -7.321     115.297     -27.845
  N       -6.138     113.531     -26.961
  C       -6.239     112.250     -26.534
  C       -7.337     111.421     -26.582
  C       -8.554     111.947     -27.161
  O       -9.615     111.341     -27.280
  N       -7.062     110.192     -26.037
  C       -5.805     110.278     -25.652
  N       -5.257     111.504     -25.945
  O       -1.534     106.854     -23.843
  O       -3.115     107.481     -21.926
  H       -3.391     113.796     -24.054
  H       -0.879     106.905     -23.126
  H       -9.238     113.676     -27.970
  H       -5.246     109.488     -25.166
  H       -3.723     112.866     -26.165
  H       -3.884     111.021     -23.701
  H       -8.196     115.751     -28.058
  H       -1.541     111.166     -23.488
  H       -6.591     115.922     -27.493
  H       -0.977     110.854     -26.209
  H       -2.349     108.585     -25.915
  H       -0.893     108.839     -24.951
  P        0.232     112.988     -24.189
  C       -0.353     113.769     -21.754
  O        0.294     112.832     -22.594
  O        0.568     114.528     -24.447
  O        1.151     112.078     -24.932
  H        1.121     114.623     -25.245
  H       -0.199     113.497     -20.731
  H       -1.402     113.775     -21.967
  H        0.052     114.744     -21.929

 6  7  8  9  10  11  12  13  14  15  26  29  33  34 0
 6-311+G(2d,p)
 ****
 36  38  39  40  41 0
 6-311+G(2d,p)
 ****
 1  2  3  4  5  16  17  18  19  20  21  22  23  24  25 0
 3-21G
 ****
 27  28  30  31  32  35  37  42  43  44  45  46  47 0
 3-21G
 ****
 48  49 0
 3-21G
 ****


