%nproc=1
%NoSave
%Mem=1900MB
#P OB98/GEN NMR

erre ene a

0 1
  C      -95.778     689.991     -23.412
  O      -96.787     689.758     -22.435
  P      -98.308     690.030     -22.861
  C      -99.021     692.403     -22.001
  O      -98.951     691.010     -21.767
  C      -99.259     693.172     -20.687
  O     -100.607     692.888     -20.226
  C      -98.345     692.781     -19.531
  O      -98.379     693.822     -18.552
  C      -99.044     691.557     -18.982
  O      -98.615     691.254     -17.655
  C     -100.535     691.930     -19.136
  N     -101.413     690.774     -19.422
  C     -101.853     689.994     -18.355
  O     -101.550     690.207     -17.180
  N     -102.627     688.912     -18.676
  C     -103.036     688.564     -19.926
  O     -103.655     687.538     -20.171
  C     -102.664     689.494     -20.995
  C     -101.876     690.532     -20.706
  O      -99.027     688.623     -22.601
  O      -98.464     690.489     -24.268
  H      -99.248     690.589     -17.301
  H      -99.206     688.175     -23.449
  H     -102.894     688.301     -17.919
  H     -103.028     689.293     -21.996
  H     -101.575     691.222     -21.492
  H     -100.921     692.411     -18.229
  H      -98.813     690.690     -19.604
  H      -97.311     692.576     -19.816
  H      -99.197     694.249     -20.883
  H      -99.816     692.623     -22.716
  H      -98.083     692.745     -22.457
  P      -97.026     694.652     -18.288
  C      -97.446     695.134     -15.802
  O      -97.351     695.678     -17.107
  O      -96.376     695.240     -19.498
  O      -96.084     693.574     -17.570
  H      -95.152     693.861     -17.630
  H      -97.148     695.897     -15.078
  H      -96.801     694.260     -15.682
  H      -98.484     694.845     -15.609
  H      -94.818     689.770     -22.993
  H      -95.807     691.016     -23.717
  H      -95.951     689.362     -24.260

 3  4  5  6  7  8  9  10  11  12  13  23  28  29  30  31  32 0
 6-311+G(2d,p)
 ****
 33  34 0
 6-311+G(2d,p)
 ****
 1  2  14  15  16  17  18  19  20  21  22  24  25  26  27 0
 3-21G
 ****
 35  36  37  38  39  40  41  42  43  44  45 0
 3-21G
 ****


