%nproc=1
%NoSave
%Mem=1900MB
#P OB98/GEN NMR

erre ene a

0 1
  C     -374.698    -343.245    -895.740
  O     -373.412    -343.810    -895.590
  H     -375.091    -342.925    -894.770
  H     -374.623    -342.375    -896.390
  H     -375.371    -343.976    -896.200
  P     -373.293    -345.040    -894.570
  C     -373.538    -346.710    -896.550
  O     -372.752    -346.301    -895.430
  C     -372.997    -348.025    -897.110
  O     -371.714    -347.814    -897.740
  C     -372.762    -349.116    -896.070
  O     -373.966    -349.767    -895.700
  C     -371.848    -350.051    -896.850
  O     -372.615    -350.871    -897.740
  C     -370.980    -349.063    -897.670
  N     -365.923    -349.605    -898.280
  C     -366.964    -349.976    -899.060
  N     -368.268    -349.812    -898.820
  C     -368.490    -349.154    -897.650
  C     -367.519    -348.737    -896.760
  C     -366.178    -348.988    -897.100
  N     -365.113    -348.614    -896.300
  N     -368.100    -348.111    -895.680
  C     -369.398    -348.181    -895.900
  N     -369.676    -348.817    -897.080
  O     -374.819    -345.433    -894.270
  O     -372.550    -344.764    -893.300
  H     -373.210    -351.409    -897.180
  H     -374.899    -345.712    -893.330
  H     -366.707    -350.454    -900.000
  H     -370.163    -347.760    -895.260
  H     -370.848    -349.411    -898.710
  H     -371.265    -350.713    -896.210
  H     -372.234    -348.714    -895.200
  H     -373.712    -348.365    -897.880
  H     -373.488    -345.939    -897.330
  H     -364.190    -348.630    -896.680
  H     -365.328    -348.143    -895.420
  H     -374.575    -346.826    -896.240
  P     -373.954    -350.676    -894.370
  C     -374.180    -349.122    -892.290
  O     -374.847    -349.901    -893.280
  O     -372.461    -350.476    -893.820
  O     -374.275    -352.109    -894.600
  H     -372.177    -351.250    -893.290
  H     -374.904    -348.672    -891.643
  H     -373.603    -348.357    -892.767
  H     -373.532    -349.752    -891.717

 6  7  8  9  10  11  12  13  14  15  25  28  32  33  34  35 0
 6-311+G(2d,p)
 ****
 36  39  40 0
 6-311+G(2d,p)
 ****
 1  2  3  4  5  16  17  18  19  20  21  22  23  24 0
 3-21G
 ****
 26  27  29  30  31  37  38  41  42  43  44  45  46  47  48 0
 3-21G
 ****


