%nproc=1
%NoSave
%Mem=1900MB
#P OB98/GEN NMR

erre ene a

0 1
  C        8.470    -164.809     -70.692
  O        9.312    -165.415     -69.730
  H        8.495    -165.409     -71.605
  H        8.824    -163.800     -70.922
  H        7.442    -164.772     -70.321
  P        9.446    -164.666     -68.318
  C        9.721    -167.122     -67.547
  O       10.090    -165.765     -67.343
  C       10.605    -168.047     -66.714
  O       10.420    -167.783     -65.314
  C       10.319    -169.530     -66.910
  O       10.993    -170.019     -68.058
  C       10.908    -170.111     -65.633
  O       12.336    -170.243     -65.775
  C       10.586    -169.028     -64.587
  N        8.761    -170.840     -60.145
  C        9.987    -170.909     -60.703
  N       10.389    -170.455     -61.911
  C        9.371    -169.865     -62.559
  C        8.065    -169.724     -62.116
  C        7.771    -170.239     -60.843
  N        6.516    -170.168     -60.275
  N        7.294    -169.070     -63.055
  C        8.136    -168.770     -64.023
  N        9.396    -169.262     -63.788
  O        8.211    -163.991     -67.824
  O       10.684    -163.692     -68.606
  H       12.490    -170.913     -66.467
  H       11.367    -164.152     -69.126
  H       10.750    -171.397     -60.103
  H        7.891    -168.185     -64.903
  H       11.411    -168.889     -63.881
  H       10.518    -171.103     -65.403
  H        9.243    -169.740     -66.936
  H       11.652    -167.818     -66.953
  H        9.812    -167.382     -68.609
  H        6.351    -170.727     -59.454
  H        5.756    -169.836     -60.851
  H        8.673    -167.229     -67.253
  P       10.246    -170.961     -69.121
  C       12.420    -170.563     -70.436
  O       11.408    -171.501     -70.085
  O        9.083    -170.325     -69.799
  O        9.843    -172.259     -68.282
  H        9.162    -172.769     -68.763
  H       13.135    -171.034     -71.077
  H       12.909    -170.217     -69.549
  H       11.976    -169.733     -70.945

 6  7  8  9  10  11  12  13  14  15  25  28  32  33  34  35 0
 6-311+G(2d,p)
 ****
 36  39  40 0
 6-311+G(2d,p)
 ****
 1  2  3  4  5  16  17  18  19  20  21  22  23  24 0
 3-21G
 ****
 26  27  29  30  31  37  38  41  42  43  44  45  46  47 0
 3-21G
 ****
 48 0
 3-21G
 ****


