%nproc=1
%NoSave
%Mem=1900MB
#P OB98/GEN NMR

erre ene a

0 1
  C     -120.900     117.556     598.540
  O     -121.707     116.388     598.702
  P     -123.024     116.059     597.853
  C     -122.110     115.381     595.483
  O     -122.711     116.372     596.311
  C     -123.013     114.986     594.277
  O     -123.161     116.152     593.410
  C     -122.318     113.916     593.436
  O     -122.428     112.549     593.814
  C     -122.751     114.204     592.009
  O     -123.901     113.448     591.624
  C     -123.082     115.708     592.042
  N     -120.792     116.703     587.565
  C     -121.683     115.697     587.892
  N     -121.963     114.793     586.915
  N     -122.233     115.554     589.076
  C     -121.792     116.462     589.976
  C     -120.914     117.498     589.796
  C     -120.352     117.660     588.470
  O     -119.566     118.558     588.121
  N     -120.697     118.198     590.950
  C     -121.433     117.573     591.839
  N     -122.126     116.516     591.294
  O     -124.303     116.604     598.406
  O     -123.107     114.460     597.893
  H     -123.653     112.511     591.578
  H     -124.068     114.229     597.891
  H     -120.415     116.770     586.650
  H     -121.502     117.846     592.893
  H     -124.067     115.900     591.586
  H     -121.955     113.946     591.301
  H     -121.490     114.783     586.030
  H     -121.231     114.129     593.463
  H     -122.441     113.945     587.206
  H     -124.008     114.710     594.619
  H     -121.922     114.510     596.115
  H     -121.134     115.730     595.123
  P     -121.237     111.464     593.824
  C     -120.296     111.618     596.207
  O     -120.122     111.983     594.848
  O     -120.532     111.661     592.401
  O     -121.672     110.057     594.023
  H     -119.963     110.874     592.201
  H     -119.676     112.271     596.834
  H     -119.999     110.582     596.358
  H     -121.344     111.748     596.511
  H     -120.084     117.525     599.232
  H     -121.492     118.427     598.726
  H     -120.519     117.591     597.541

 3  4  5  6  7  8  9  10  11  12  23  26  30  31 0
 6-311+G(2d,p)
 ****
 33  35  36  37  38 0
 6-311+G(2d,p)
 ****
 1  2  13  14  15  16  17  18  19  20  21  22  24  25 0
 3-21G
 ****
 27  28  29  32  34  39  40  41  42  43  44  45  46  47  48  49 0
 3-21G
 ****


