%nproc=1
%NoSave
%Mem=1900MB
#P OB98/GEN NMR

erre ene a

0 1
  C      -34.150    -893.731    -898.800
  O      -34.155    -894.585    -897.640
  P      -35.308    -894.354    -896.540
  C      -36.235    -896.763    -896.580
  O      -36.501    -895.384    -896.810
  C      -37.447    -897.636    -897.010
  O      -38.642    -897.196    -896.320
  C      -37.708    -897.575    -898.520
  O      -37.837    -898.861    -899.120
  C      -38.947    -896.673    -898.630
  O      -39.699    -896.896    -899.820
  C      -39.686    -896.952    -897.300
  N      -40.554    -895.836    -896.930
  C      -41.744    -895.716    -897.650
  O      -42.032    -896.435    -898.620
  N      -42.552    -894.664    -897.300
  C      -42.298    -893.729    -896.350
  O      -43.066    -892.813    -896.100
  C      -41.005    -893.866    -895.650
  C      -40.213    -894.905    -895.980
  O      -35.712    -892.956    -896.300
  O      -34.623    -894.989    -895.210
  H      -40.446    -896.269    -899.840
  H      -34.866    -894.411    -894.460
  H      -43.436    -894.592    -897.800
  H      -40.743    -893.126    -894.920
  H      -39.242    -895.023    -895.500
  H      -40.302    -897.840    -897.380
  H      -38.602    -895.637    -898.630
  H      -36.882    -897.098    -899.060
  H      -37.238    -898.669    -896.700
  H      -36.034    -896.936    -895.530
  H      -35.330    -897.071    -897.130
  P      -37.079    -900.180    -898.630
  C      -39.294    -901.233    -897.840
  O      -37.972    -900.879    -897.510
  O      -35.619    -899.991    -898.260
  O      -37.167    -901.162    -899.890
  H      -36.355    -901.656    -900.000
  H      -39.876    -901.337    -896.890
  H      -39.338    -902.183    -898.360
  H      -39.792    -900.450    -898.440
  H      -33.333    -894.000    -899.437
  H      -34.042    -892.712    -898.492
  H      -35.071    -893.847    -899.332

 3  4  5  6  7  8  9  10  11  12  13  23  28  29  30  31  32 0
 6-311+G(2d,p)
 ****
 33  34 0
 6-311+G(2d,p)
 ****
 1  2  14  15  16  17  18  19  20  21  22  24  25  26  27 0
 3-21G
 ****
 35  36  37  38  39  40  41  42  43  44  45 0
 3-21G
 ****


