%nproc=1
%NoSave
%Mem=1900MB
#P OB98/GEN NMR

erre ene a

0 1
  C      -31.543    -247.019    -358.363
  O      -32.306    -247.359    -359.503
  P      -31.622    -247.523    -360.938
  C      -31.918    -250.063    -360.781
  O      -31.009    -249.002    -361.032
  C      -32.066    -250.970    -362.001
  O      -32.609    -250.203    -363.107
  C      -30.753    -251.608    -362.471
  O      -31.057    -252.939    -362.900
  C      -30.357    -250.745    -363.653
  O      -29.472    -251.414    -364.541
  C      -31.734    -250.407    -364.234
  N      -31.701    -249.239    -365.099
  C      -31.476    -249.465    -366.459
  O      -31.185    -250.594    -366.858
  N      -31.570    -248.404    -367.323
  C      -31.687    -247.203    -366.850
  N      -31.845    -246.189    -367.743
  C      -31.677    -246.905    -365.404
  C      -31.726    -247.961    -364.594
  O      -30.673    -246.435    -361.315
  O      -32.856    -247.581    -361.958
  H      -32.724    -246.913    -362.658
  H      -28.598    -251.508    -364.106
  H      -31.651    -245.884    -365.059
  H      -31.750    -247.846    -363.517
  H      -32.131    -251.258    -364.802
  H      -29.858    -249.838    -363.296
  H      -29.995    -251.647    -361.685
  H      -32.797    -251.751    -361.759
  H      -31.889    -246.434    -368.724
  H      -32.891    -249.629    -360.541
  H      -32.255    -245.293    -367.477
  H      -31.586    -250.639    -359.910
  P      -29.898    -254.049    -362.826
  C      -30.332    -255.110    -360.500
  O      -29.520    -254.263    -361.285
  O      -28.630    -253.223    -363.369
  O      -30.094    -255.276    -363.655
  H      -27.982    -253.848    -363.745
  H      -29.968    -255.085    -359.470
  H      -30.274    -256.138    -360.865
  H      -31.370    -254.768    -360.513
  H      -32.185    -246.959    -357.509
  H      -31.069    -246.073    -358.520
  H      -30.797    -247.768    -358.197

 3  4  5  6  7  8  9  10  11  12  13  24  27  28  29  30  32 0
 6-311+G(2d,p)
 ****
 34  35 0
 6-311+G(2d,p)
 ****
 1  2  14  15  16  17  18  19  20  21  22  23  25  26 0
 3-21G
 ****
 31  33  36  37  38  39  40  41  42  43  44  45  46 0
 3-21G
 ****


