%nproc=1
%NoSave
%Mem=1900MB
#P OB98/GEN NMR

erre ene a

0 1
  C      -16.939    -183.044    -466.569
  O      -15.523    -182.918    -466.400
  P      -14.988    -182.731    -464.894
  C      -13.471    -180.648    -465.267
  O      -13.539    -182.040    -464.982
  C      -12.051    -180.246    -465.650
  O      -11.662    -180.840    -466.905
  C      -11.855    -178.747    -465.849
  O      -11.704    -178.067    -464.612
  C      -10.549    -178.720    -466.639
  O       -9.431    -178.826    -465.739
  C      -10.664    -179.981    -467.510
  N       -9.065    -178.974    -472.215
  C       -8.335    -179.200    -471.058
  N       -6.992    -179.182    -471.187
  N       -8.878    -179.424    -469.895
  C      -10.238    -179.444    -469.924
  C      -11.067    -179.228    -471.001
  C      -10.456    -178.951    -472.283
  O      -11.051    -178.710    -473.329
  N      -12.386    -179.339    -470.647
  C      -12.354    -179.641    -469.363
  N      -11.072    -179.701    -468.876
  O      -14.649    -184.230    -464.442
  O      -15.970    -182.076    -463.983
  H       -9.371    -177.981    -465.254
  H      -14.724    -184.315    -463.473
  H       -8.596    -178.799    -473.084
  H      -13.227    -179.830    -468.747
  H       -9.726    -180.540    -467.539
  H      -10.417    -177.789    -467.202
  H       -6.507    -179.089    -472.069
  H      -12.663    -178.323    -466.455
  H       -6.441    -179.386    -470.358
  H      -11.368    -180.607    -464.869
  H      -13.786    -180.076    -464.387
  H      -14.178    -180.411    -466.066
  P      -12.466    -176.660    -464.453
  C      -10.344    -175.164    -464.549
  O      -11.407    -175.674    -463.765
  O      -13.530    -176.957    -463.295
  O      -13.110    -176.161    -465.702
  H      -14.316    -176.381    -463.404
  H      -10.694    -174.856    -465.537
  H       -9.568    -175.930    -464.660
  H       -9.913    -174.296    -464.040
  H      -17.165    -183.162    -467.608
  H      -17.422    -182.165    -466.196
  H      -17.288    -183.899    -466.029

 3  4  5  6  7  8  9  10  11  12  23  26  30  31  33  0
 6-311+G(2d,p)
 ****
 35  36  37  38 0
 6-311+G(2d,p)
 ****
 1  2  13  14  15  16  17  18  19  20  21  22  24  25  27  28  29 0
 3-21G
 ****
 32  34  39  40  41  42  43  44  45  46  47  48  49 0
 3-21G
 ****


