%nproc=1
%NoSave
%Mem=1900MB
#P OB98/GEN NMR

erre ene a

0 1
  C     -373.673     141.025      17.084
  O     -372.431     141.723      17.002
  P     -371.197     141.140      17.841
  C     -369.996     139.460      16.214
  O     -370.039     140.752      16.801
  C     -368.919     139.387      15.113
  O     -369.218     140.387      14.108
  C     -367.494     139.686      15.577
  O     -366.583     139.180      14.606
  C     -367.476     141.203      15.546
  O     -366.145     141.712      15.540
  C     -368.324     141.519      14.292
  N     -369.099     142.769      14.401
  C     -368.456     143.982      14.130
  O     -367.270     144.067      13.805
  N     -369.207     145.117      14.286
  C     -370.525     145.157      14.637
  O     -371.132     146.207      14.844
  C     -371.189     143.859      14.773
  C     -370.462     142.747      14.664
  O     -371.734     139.734      18.372
  O     -370.747     142.032      18.953
  H     -365.703     141.352      16.343
  H     -371.945     139.788      19.325
  H     -368.735     146.000      14.159
  H     -372.258     143.852      14.990
  H     -370.939     141.772      14.786
  H     -367.690     141.607      13.399
  H     -367.970     141.598      16.440
  H     -367.244     139.296      16.566
  H     -368.968     138.400      14.631
  H     -370.980     139.206      15.800
  H     -369.784     138.713      16.990
  P     -365.810     137.810      14.937
  C     -367.372     136.196      13.683
  O     -366.099     136.818      13.707
  O     -366.043     137.239      16.297
  O     -364.273     138.204      14.714
  H     -363.696     137.550      15.167
  H     -367.648     135.998      12.639
  H     -368.139     136.824      14.144
  H     -367.317     135.240      14.216
  H     -374.402     141.522      16.478
  H     -374.006     141.008      18.101
  H     -373.542     140.022      16.734

 3  4  5  6  7  8  9  10  11  12  13  23  28  29  30  31  32 0
 6-311+G(2d,p)
 ****
 33  34 0
 6-311+G(2d,p)
 ****
 1  2  14  15  16  17  18  19  20  21  22  24  25  26  27 0
 3-21G
 ****
 35  36  37  38  39  40  41  42  43  44  45 0
 3-21G
 ****


