%nproc=1
%NoSave
%Mem=1900MB
#P OB98/GEN NMR

erre ene a

0 1
  C      623.534     559.151    -301.741
  O      623.194     559.365    -303.096
  H      622.690     558.666    -301.241
  H      623.730     560.109    -301.250
  H      624.412     558.505    -301.665
  P      624.358     559.906    -304.056
  C      623.093     561.753    -305.429
  O      623.620     560.441    -305.376
  C      622.152     561.919    -306.624
  O      622.856     561.500    -307.827
  C      620.878     561.082    -306.524
  O      619.802     561.821    -307.113
  C      621.180     559.861    -307.379
  O      619.990     559.223    -307.846
  C      622.065     560.482    -308.475
  N      622.899     559.493    -309.140
  C      622.468     559.039    -310.395
  O      621.420     559.466    -310.878
  N      623.206     558.078    -311.048
  C      624.254     557.575    -310.473
  N      624.929     556.610    -311.159
  C      624.720     557.986    -309.131
  C      624.007     558.935    -308.541
  O      625.050     558.544    -304.537
  O      625.289     560.878    -303.412
  H      619.504     559.858    -308.418
  H      624.411     557.856    -304.789
  H      625.594     557.523    -308.690
  H      624.286     559.315    -307.552
  H      621.438     560.974    -309.239
  H      621.750     559.128    -306.803
  H      620.616     560.826    -305.494
  H      621.921     562.978    -306.742
  H      624.556     556.348    -312.065
  H      623.903     562.490    -305.498
  H      625.719     556.105    -310.789
  H      622.550     561.941    -304.491
  P      618.791     562.633    -306.168
  C      617.241     562.546    -308.249
  O      617.621     563.269    -307.072
  O      619.426     563.574    -305.200
  O      618.021     561.460    -305.389
  H      617.908     561.739    -304.460
  H      616.460     563.074    -308.755
  H      616.893     561.572    -307.973
  H      618.086     562.452    -308.898

 6  7  8  9  10  11  12  13  14  15  16  26  30  31  32  33  35 0
 6-311+G(2d,p)
 ****
 37  38 0
 6-311+G(2d,p)
 ****
 1  2  3  4  5  17  18  19  20  21  22  23  24  25 0
 3-21G
 ****
 27  28  29  34  36  39  40  41  42  43  44  45  46 0
 3-21G
 ****


