%nproc=1
%NoSave
%Mem=1900MB
#P OB98/GEN NMR

erre ene a

0 1
  C     -155.063     360.460    -113.128
  O     -153.863     359.913    -112.623
  H     -155.447     361.193    -112.412
  H     -155.815     359.683    -113.268
  H     -154.872     360.971    -114.079
  P     -153.176     358.698    -113.405
  C     -153.625     357.049    -111.475
  O     -153.855     357.355    -112.847
  C     -153.896     355.570    -111.194
  O     -152.880     354.780    -111.869
  C     -153.871     355.216    -109.704
  O     -154.880     354.231    -109.458
  C     -152.490     354.617    -109.529
  O     -152.436     353.757    -108.405
  C     -152.255     353.935    -110.882
  N     -150.825     353.758    -111.141
  C     -150.214     352.650    -110.543
  O     -150.881     351.874    -109.851
  N     -148.863     352.479    -110.686
  C     -148.166     353.367    -111.318
  N     -146.824     353.159    -111.391
  C     -148.758     354.567    -111.945
  C     -150.081     354.699    -111.818
  O     -151.684     358.685    -113.420
  O     -153.775     358.820    -114.887
  H     -152.804     354.221    -107.623
  H     -153.193     359.377    -115.439
  H     -148.136     355.281    -112.456
  H     -150.603     355.553    -112.235
  H     -152.743     352.956    -110.915
  H     -151.758     355.420    -109.376
  H     -154.029     356.080    -109.054
  H     -154.861     355.302    -111.648
  H     -146.458     352.336    -110.925
  H     -154.303     357.670    -110.878
  H     -146.173     353.802    -111.818
  H     -152.592     357.301    -111.209
  P     -156.251     354.626    -108.723
  C     -155.798     354.427    -106.210
  O     -155.904     355.321    -107.314
  O     -157.256     353.527    -108.640
  O     -156.816     355.845    -109.604
  H     -157.789     355.844    -109.559
  H     -155.566     354.980    -105.324
  H     -155.021     353.716    -106.400
  H     -156.727     353.913    -106.077

 6  7  8  9  10  11  12  13  14  15  16  26  30  31  32  33  35 0
 6-311+G(2d,p)
 ****
 37  38 0
 6-311+G(2d,p)
 ****
 1  2  3  4  5  17  18  19  20  21  22  23  24  25 0
 3-21G
 ****
 27  28  29  34  36  39  40  41  42  43  44  45  46 0
 3-21G
 ****


