%nproc=1
%NoSave
%Mem=1900MB
#P OB98/GEN NMR

erre ene a

0 1
  C     -563.028     327.198      -2.129
  O     -563.412     328.191      -3.048
  H     -562.080     326.764      -2.453
  H     -563.773     326.396      -2.097
  H     -562.889     327.621      -1.131
  P     -564.800     328.967      -2.834
  C     -563.582     330.965      -1.769
  O     -564.552     329.944      -1.576
  C     -563.152     331.579      -0.434
  O     -562.651     330.535       0.451
  C     -562.056     332.648      -0.559
  O     -562.406     333.804       0.199
  C     -560.828     331.976       0.045
  O     -559.874     332.902       0.533
  C     -561.490     331.080       1.112
  N     -560.595     330.048       1.590
  C     -559.753     330.408       2.667
  O     -559.818     331.543       3.133
  N     -558.832     329.503       3.115
  C     -558.729     328.341       2.542
  N     -557.782     327.507       3.025
  C     -559.572     327.934       1.392
  C     -560.472     328.823       0.977
  O     -565.999     328.086      -2.729
  O     -564.884     329.993      -4.059
  H     -559.319     332.453       1.205
  H     -565.832     330.245      -4.198
  H     -559.433     326.960       0.938
  H     -561.131     328.612       0.136
  H     -561.836     331.677       1.963
  H     -560.347     331.347      -0.711
  H     -561.874     332.948      -1.594
  H     -564.048     331.989       0.061
  H     -557.223     327.826       3.796
  H     -564.015     331.732      -2.428
  H     -557.580     326.594       2.634
  H     -562.706     330.522      -2.257
  P     -563.431     334.829      -0.483
  C     -565.382     334.374       1.174
  O     -564.923     334.308      -0.176
  O     -563.248     334.547      -2.056
  O     -563.166     336.254      -0.138
  H     -562.804     335.304      -2.471
  H     -566.382     333.998       1.229
  H     -565.364     335.391       1.507
  H     -564.744     333.783       1.797

 6  7  8  9  10  11  12  13  14  15  16  26  30  31  32  33  35 0
 6-311+G(2d,p)
 ****
 37  38 0
 6-311+G(2d,p)
 ****
 1  2  3  4  5  17  18  19  20  21  22  23  24  25 0
 3-21G
 ****
 27  28  29  34  36  39  40  41  42  43  44  45  46 0
 3-21G
 ****


