%nproc=1
%NoSave
%Mem=1900MB
#P OB98/GEN NMR

erre ene a

0 1
  C      187.697    -115.912    -189.451
  O      186.547    -116.446    -190.087
  P      185.622    -117.447    -189.241
  C      183.460    -116.303    -188.402
  O      184.839    -116.546    -188.166
  C      182.667    -116.355    -187.101
  O      182.763    -117.695    -186.541
  C      183.155    -115.372    -186.024
  O      182.023    -114.748    -185.403
  C      183.811    -116.272    -184.993
  O      183.813    -115.684    -183.696
  C      182.944    -117.523    -185.122
  N      182.157    -121.150    -181.698
  C      181.271    -120.235    -182.232
  N      180.013    -120.257    -181.741
  N      181.590    -119.375    -183.162
  C      182.876    -119.487    -183.583
  C      183.842    -120.358    -183.135
  C      183.491    -121.264    -182.065
  O      184.253    -122.036    -181.485
  N      185.020    -120.181    -183.816
  C      184.771    -119.206    -184.667
  N      183.495    -118.719    -184.531
  O      186.687    -118.253    -188.358
  O      184.779    -118.371    -190.048
  H      182.882    -115.521    -183.453
  H      186.585    -119.211    -188.514
  H      181.863    -121.777    -180.971
  H      185.484    -118.801    -185.374
  H      181.955    -117.351    -184.673
  H      184.848    -116.465    -185.288
  H      179.690    -120.916    -181.052
  H      183.841    -114.604    -186.397
  H      179.341    -119.608    -182.136
  H      181.608    -116.181    -187.329
  H      183.072    -117.065    -189.088
  H      183.348    -115.320    -188.872
  P      182.081    -113.147    -185.275
  C      180.435    -112.985    -187.288
  O      181.663    -112.581    -186.713
  O      183.646    -112.840    -185.185
  O      181.321    -112.605    -184.111
  H      183.803    -111.993    -184.730
  H      179.811    -113.540    -186.581
  H      180.638    -113.618    -188.155
  H      179.891    -112.097    -187.617
  H      188.213    -115.266    -190.131
  H      188.345    -116.711    -189.157
  H      187.401    -115.356    -188.586

 3  4  5  6  7  8  9  10  11  12  23  26  30  31  33  0
 6-311+G(2d,p)
 ****
 35  36  37  38 0
 6-311+G(2d,p)
 ****
 1  2  13  14  15  16  17  18  19  20  21  22  24  25  27  28  29 0
 3-21G
 ****
 32  34  39  40  41  42  43  44  45  46  47  48  49 0
 3-21G
 ****


