%nproc=1
%NoSave
%Mem=1900MB
#P OB98/GEN NMR

erre ene a

0 1
  C     -564.320      -3.938      66.102
  O     -565.039      -5.145      65.936
  H     -564.037      -3.840      67.154
  H     -564.942      -3.086      65.824
  H     -563.409      -3.952      65.493
  P     -565.567      -5.461      64.454
  C     -563.597      -7.028      63.816
  O     -564.262      -5.795      63.580
  C     -563.763      -7.961      62.622
  O     -563.409      -7.291      61.392
  C     -562.914      -9.225      62.690
  O     -563.536     -10.221      63.484
  C     -562.841      -9.612      61.216
  O     -564.035     -10.305      60.790
  C     -562.729      -8.244      60.532
  N     -559.742      -5.643      57.403
  C     -561.106      -5.838      57.376
  N     -561.764      -5.296      56.328
  N     -561.764      -6.507      58.287
  C     -560.966      -7.009      59.253
  C     -559.603      -6.876      59.403
  C     -558.897      -6.110      58.399
  O     -557.692      -5.849      58.404
  N     -559.163      -7.520      60.526
  C     -560.245      -8.076      61.037
  N     -561.362      -7.810      60.294
  O     -566.021      -4.028      63.902
  O     -566.672      -6.458      64.368
  H     -564.300     -10.934      61.480
  H     -566.759      -4.144      63.275
  H     -559.292      -5.106      56.681
  H     -560.269      -8.678      61.936
  H     -563.243      -8.225      59.559
  H     -562.002     -10.281      61.015
  H     -561.299      -5.082      55.459
  H     -561.909      -8.999      63.056
  H     -562.767      -5.453      56.290
  H     -564.828      -8.223      62.553
  H     -564.032      -7.499      64.707
  H     -562.541      -6.835      64.001
  P     -562.807     -10.649      64.846
  C     -564.881     -10.240      66.365
  O     -563.547      -9.861      66.030
  O     -561.385      -9.917      64.756
  O     -562.661     -12.123      65.046
  H     -560.760     -10.316      65.391
  H     -565.235      -9.627      67.167
  H     -564.895     -11.266      66.667
  H     -565.513     -10.111      65.512

 6  7  8  9  10  11  12  13  14  15  26  29  33  34 0
 6-311+G(2d,p)
 ****
 36  38  39  40  41 0
 6-311+G(2d,p)
 ****
 1  2  3  4  5  16  17  18  19  20  21  22  23  24  25 0
 3-21G
 ****
 27  28  30  31  32  35  37  42  43  44  45  46  47 0
 3-21G
 ****
 48  49 0
 3-21G
 ****


