%nproc=1
%NoSave
%Mem=1900MB
#P OB98/GEN NMR

erre ene a

0 1
  C     -200.182     -94.953    -132.620
  O     -200.592     -96.298    -132.796
  P     -200.391     -96.978    -134.231
  C     -197.810     -97.147    -133.960
  O     -198.900     -96.649    -134.723
  C     -196.841     -97.927    -134.855
  O     -196.499     -97.111    -136.017
  C     -195.526     -98.313    -134.166
  O     -195.110     -99.580    -134.706
  C     -194.576     -97.225    -134.634
  O     -193.209     -97.582    -134.513
  C     -195.058     -97.052    -136.080
  N     -194.597     -95.807    -136.690
  C     -193.731     -95.908    -137.777
  O     -193.341     -96.977    -138.245
  N     -193.269     -94.726    -138.287
  C     -193.506     -93.483    -137.773
  O     -192.965     -92.469    -138.204
  C     -194.419     -93.434    -136.624
  C     -194.920     -94.576    -136.143
  O     -201.316     -96.089    -135.190
  O     -200.756     -98.426    -134.288
  H     -192.677     -96.781    -134.676
  H     -202.161     -96.538    -135.360
  H     -192.651     -94.781    -139.082
  H     -194.649     -92.460    -136.205
  H     -195.586     -94.572    -135.285
  H     -194.731     -97.900    -136.696
  H     -194.742     -96.317    -134.046
  H     -195.601     -98.370    -133.075
  H     -197.355     -98.822    -135.227
  H     -198.189     -97.810    -133.181
  H     -197.293     -96.315    -133.470
  P     -194.532    -100.676    -133.683
  C     -196.918    -101.562    -133.096
  O     -195.705    -101.005    -132.642
  O     -193.502     -99.784    -132.838
  O     -193.889    -101.848    -134.359
  H     -193.866     -98.913    -132.602
  H     -196.763    -102.246    -133.937
  H     -197.595    -100.764    -133.398
  H     -197.381    -102.123    -132.271
  H     -200.382     -94.648    -131.614
  H     -200.721     -94.324    -133.297
  H     -199.133     -94.871    -132.816

 3  4  5  6  7  8  9  10  11  12  13  23  28  29  30  31  32 0
 6-311+G(2d,p)
 ****
 33  34 0
 6-311+G(2d,p)
 ****
 1  2  14  15  16  17  18  19  20  21  22  24  25  26 0
 3-21G
 ****
 27  35  36  37  38  39  40  41  42  43  44  45 0
 3-21G
 ****


