%nproc=1
%NoSave
%Mem=1900MB
#P OB98/GEN NMR

erre ene a

0 1
  C     -656.678     104.603     234.408
  O     -657.862     105.198     233.916
  H     -656.631     103.577     234.031
  H     -656.708     104.578     235.497
  H     -655.787     105.134     234.067
  P     -658.042     106.787     234.062
  C     -658.259     108.168     231.893
  O     -657.390     107.446     232.756
  C     -658.404     107.459     230.541
  O     -658.978     106.135     230.757
  C     -659.316     108.217     229.539
  O     -658.814     107.930     228.230
  C     -660.646     107.522     229.764
  O     -661.534     107.749     228.695
  C     -660.188     106.074     229.960
  N     -661.210     105.244     230.601
  C     -662.227     104.763     229.784
  O     -662.307     105.029     228.582
  N     -663.189     103.997     230.381
  C     -663.263     103.741     231.731
  O     -664.172     103.067     232.233
  C     -662.178     104.305     232.552
  C     -661.229     105.015     231.975
  O     -657.581     107.376     235.357
  O     -659.611     107.041     233.819
  H     -661.177     107.372     227.869
  H     -659.908     107.808     234.330
  H     -663.930     103.633     229.811
  H     -662.214     104.121     233.628
  H     -660.419     105.449     232.549
  H     -659.927     105.613     229.006
  H     -661.123     107.896     230.680
  H     -659.348     109.284     229.707
  H     -657.396     107.307     230.123
  H     -657.839     109.164     231.746
  H     -659.248     108.254     232.372
  P     -658.039     109.014     227.349
  C     -655.799     107.821     226.909
  O     -656.460     108.883     227.607
  O     -658.550     110.410     227.495
  O     -658.213     108.520     225.832
  H     -658.189     109.285     225.224
  H     -654.757     107.828     227.154
  H     -655.919     107.958     225.855
  H     -656.227     106.884     227.197

 6  7  8  9  10  11  12  13  14  15  16  26  31  32  33  34  35 0
 6-311+G(2d,p)
 ****
 36  37 0
 6-311+G(2d,p)
 ****
 1  2  3  4  5  17  18  19  20  21  22  23  24  25 0
 3-21G
 ****
 27  28  29  30  38  39  40  41  42  43  44  45 0
 3-21G
 ****


