%nproc=1
%NoSave
%Mem=1900MB
#P OB98/GEN NMR

erre ene a

0 1
  C      -58.905    -188.254    -226.524
  O      -58.016    -188.549    -225.466
  H      -58.376    -188.372    -227.475
  H      -59.258    -187.224    -226.443
  H      -59.759    -188.939    -226.510
  P      -58.623    -188.549    -223.981
  C      -57.106    -186.534    -223.338
  O      -58.423    -187.060    -223.411
  C      -57.051    -185.431    -222.274
  O      -57.721    -184.251    -222.795
  C      -57.753    -185.816    -220.958
  O      -57.023    -185.255    -219.862
  C      -59.105    -185.135    -221.083
  O      -59.730    -184.885    -219.829
  C      -58.728    -183.856    -221.835
  N      -59.867    -183.239    -222.505
  C      -60.855    -182.668    -221.702
  O      -60.801    -182.588    -220.479
  N      -61.956    -182.185    -222.371
  C      -62.165    -182.231    -223.721
  O      -63.182    -181.803    -224.262
  C      -61.090    -182.853    -224.515
  C      -60.010    -183.320    -223.876
  O      -57.559    -189.408    -223.145
  O      -60.012    -189.075    -223.852
  H      -57.801    -190.351    -223.151
  H      -60.565    -184.401    -219.995
  H      -62.680    -181.770    -221.806
  H      -61.226    -182.914    -225.587
  H      -59.210    -183.796    -224.436
  H      -58.262    -183.132    -221.155
  H      -59.784    -185.751    -221.681
  H      -57.847    -186.895    -220.832
  H      -56.003    -185.157    -222.096
  H      -56.835    -186.112    -224.307
  H      -56.409    -187.337    -223.084
  P      -56.061    -186.249    -219.030
  C      -58.289    -187.160    -217.992
  O      -57.011    -187.449    -218.533
  O      -55.785    -185.387    -217.716
  O      -54.846    -186.660    -219.797
  H      -56.550    -184.865    -217.420
  H      -58.775    -188.073    -217.718
  H      -58.879    -186.648    -218.724
  H      -58.178    -186.541    -217.126

 6  7  8  9  10  11  12  13  14  15  16  27  31  32  33  34  35 0
 6-311+G(2d,p)
 ****
 36  37 0
 6-311+G(2d,p)
 ****
 1  2  3  4  5  17  18  19  20  21  22  23  24  25 0
 3-21G
 ****
 26  28  29  30  38  39  40  41  42  43  44  45 0
 3-21G
 ****


