%nproc=1
%NoSave
%Mem=1900MB
#P OB98/GEN NMR

erre ene a

0 1
  C        9.941      -4.987     -66.824
  O       11.071      -5.594     -67.424
  H       10.106      -4.926     -65.744
  H        9.052      -5.595     -67.011
  H        9.793      -3.978     -67.217
  P       11.128      -5.564     -69.024
  C       10.766      -8.120     -69.493
  O       10.244      -6.799     -69.556
  C        9.741      -9.114     -70.031
  O        8.490      -8.992     -69.326
  C        9.358      -8.891     -71.485
  O       10.379      -9.270     -72.381
  C        8.110      -9.758     -71.584
  O        8.437     -11.129     -71.842
  C        7.487      -9.599     -70.176
  N        6.256      -8.832     -70.215
  C        5.176      -9.462     -70.849
  O        5.306     -10.598     -71.308
  N        3.998      -8.774     -70.978
  C        3.910      -7.557     -70.540
  N        2.723      -6.919     -70.729
  C        5.024      -6.856     -69.867
  C        6.158      -7.545     -69.740
  O       12.627      -6.033     -69.324
  O       10.762      -4.256     -69.640
  H        7.588     -11.585     -72.020
  H       12.891      -6.835     -68.843
  H        4.895      -5.845     -69.508
  H        7.025      -7.108     -69.260
  H        7.264     -10.583     -69.741
  H        7.454      -9.429     -72.395
  H        9.059      -7.845     -71.640
  H       10.133     -10.128     -69.873
  H        2.006      -7.417     -71.243
  H       11.040      -8.376     -68.464
  H        2.565      -5.949     -70.501
  H       11.678      -8.147     -70.096
  P       10.721      -8.390     -73.674
  C        8.951      -9.848     -74.851
  O        9.470      -8.534     -74.676
  O       12.045      -8.666     -74.303
  O       10.550      -6.887     -73.146
  H        9.664      -6.670     -72.808
  H        8.128      -9.818     -75.534
  H        8.618     -10.229     -73.908
  H        9.717     -10.485     -75.242

 6  7  8  9  10  11  12  13  14  15  16  26  30  31  32  33  35 0
 6-311+G(2d,p)
 ****
 37  38 0
 6-311+G(2d,p)
 ****
 1  2  3  4  5  17  18  19  20  21  22  23  24  25 0
 3-21G
 ****
 27  28  29  34  36  39  40  41  42  43  44  45  46 0
 3-21G
 ****


