%nproc=1
%NoSave
%Mem=1900MB
#P OB98/GEN NMR

erre ene a

0 1
  C      342.909      70.708     542.873
  O      341.555      70.668     543.302
  P      340.632      69.505     542.687
  C      338.693      71.171     542.131
  O      339.636      70.224     541.654
  C      337.789      71.628     540.982
  O      338.464      72.630     540.189
  C      337.400      70.521     540.019
  O      336.314      69.772     540.534
  C      337.057      71.313     538.761
  O      335.728      71.860     538.844
  C      338.115      72.427     538.788
  N      340.198      72.617     534.190
  C      338.892      72.839     534.583
  N      338.023      73.211     533.612
  N      338.473      72.716     535.817
  C      339.444      72.327     536.670
  C      340.772      72.061     536.405
  C      341.230      72.256     535.048
  O      342.392      72.162     534.666
  N      341.447      71.668     537.528
  C      340.539      71.729     538.483
  N      339.308      72.147     538.017
  O      339.693      69.097     543.924
  O      341.374      68.332     542.122
  H      335.747      72.687     539.360
  H      340.037      68.300     544.363
  H      340.468      72.745     533.227
  H      340.725      71.507     539.523
  H      337.718      73.386     538.417
  H      337.090      70.696     537.857
  H      338.272      73.307     532.638
  H      338.256      69.865     539.814
  H      337.062      73.372     533.881
  H      336.899      72.093     541.417
  H      339.227      72.036     542.539
  H      338.095      70.713     542.933
  P      335.889      68.432     539.752
  C      333.724      69.684     539.054
  O      334.795      68.850     538.663
  O      335.056      67.616     540.842
  O      337.046      67.635     539.230
  H      335.228      66.660     540.737
  H      333.403      70.285     538.194
  H      334.012      70.356     539.869
  H      332.885      69.063     539.388
  H      343.411      71.522     543.353
  H      342.943      70.843     541.812
  H      343.392      69.789     543.131

 3  4  5  6  7  8  9  10  11  12  23  26  30  31 0
 6-311+G(2d,p)
 ****
 33  35  36  37  38 0
 6-311+G(2d,p)
 ****
 1  2  13  14  15  16  17  18  19  20  21  22  24  25 0
 3-21G
 ****
 27  28  29  32  34  39  40  41  42  43  44  45  46  47  48  49 0
 3-21G
 ****


