%nproc=1
%NoSave
%Mem=1900MB
#P OB98/GEN NMR

erre ene a

0 1
  C      104.598     204.001    -198.307
  O      105.366     205.030    -198.896
  H      104.637     203.122    -198.956
  H      103.559     204.316    -198.208
  H      105.000     203.727    -197.327
  P      105.647     206.363    -198.054
  C      105.011     208.006    -199.938
  O      106.051     207.502    -199.107
  C      105.541     209.152    -200.795
  O      105.819     210.302    -199.969
  C      106.843     208.834    -201.521
  O      106.609     207.997    -202.639
  C      107.328     210.237    -201.859
  O      106.649     210.746    -203.019
  C      106.911     211.020    -200.590
  N      108.013     211.216    -199.649
  C      108.982     212.144    -200.015
  O      108.962     212.750    -201.084
  N      109.997     212.335    -199.111
  C      110.171     211.647    -197.944
  O      111.126     211.823    -197.194
  C      109.132     210.658    -197.626
  C      108.117     210.489    -198.477
  O      106.583     206.219    -196.900
  O      104.188     206.819    -197.575
  H      105.700     210.775    -202.794
  H      104.047     206.552    -196.647
  H      110.716     212.994    -199.362
  H      109.242     210.087    -196.713
  H      107.346     209.757    -198.264
  H      106.519     212.008    -200.867
  H      108.395     210.274    -202.077
  H      107.559     208.374    -200.831
  H      104.755     209.434    -201.510
  H      104.197     208.371    -199.301
  H      104.634     207.193    -200.567
  P      107.385     206.609    -202.794
  C      108.955     207.596    -204.560
  O      108.016     206.569    -204.273
  O      106.599     205.395    -202.422
  O      108.671     206.772    -201.859
  H      108.557     206.242    -201.045
  H      109.314     207.482    -205.562
  H      109.776     207.529    -203.877
  H      108.482     208.550    -204.457

 6  7  8  9  10  11  12  13  14  15  16  26  31  32  33  34  35 0
 6-311+G(2d,p)
 ****
 36  37 0
 6-311+G(2d,p)
 ****
 1  2  3  4  5  17  18  19  20  21  22  23  24  25 0
 3-21G
 ****
 27  28  29  30  38  39  40  41  42  43  44  45 0
 3-21G
 ****


