%nproc=1
%NoSave
%Mem=1900MB
#P OB98/GEN NMR

erre ene a

0 1
  C      115.011    -174.482     -73.456
  O      114.296    -175.694     -73.597
  H      115.048    -173.983     -74.428
  H      116.032    -174.683     -73.121
  H      114.505    -173.827     -72.742
  P      114.182    -176.609     -72.282
  C      115.698    -178.531     -71.426
  O      115.633    -177.259     -72.058
  C      117.127    -179.065     -71.448
  O      117.979    -178.287     -70.580
  C      117.261    -180.519     -71.009
  O      116.985    -181.402     -72.083
  C      118.719    -180.561     -70.570
  O      119.598    -180.690     -71.709
  C      118.893    -179.190     -69.903
  N      121.042    -179.407     -65.334
  C      121.601    -179.535     -66.592
  N      122.927    -179.788     -66.640
  N      120.922    -179.438     -67.703
  C      119.594    -179.245     -67.504
  C      118.921    -179.103     -66.311
  C      119.695    -179.155     -65.092
  O      119.271    -178.969     -63.953
  N      117.580    -178.898     -66.522
  C      117.443    -178.951     -67.835
  N      118.637    -179.166     -68.474
  O      113.294    -177.852     -72.767
  O      113.575    -175.947     -71.093
  H      119.319    -180.064     -72.399
  H      112.697    -178.114     -72.039
  H      121.617    -179.459     -64.514
  H      116.506    -178.835     -68.366
  H      119.904    -178.795     -70.044
  H      118.922    -181.420     -69.928
  H      123.433    -180.155     -65.847
  H      116.616    -180.730     -70.146
  H      123.323    -179.954     -67.559
  H      117.510    -178.936     -72.471
  H      115.041    -179.223     -71.958
  H      115.355    -178.434     -70.390
  P      116.541    -182.900     -71.734
  C      117.736    -184.826     -70.461
  O      117.862    -183.738     -71.367
  O      116.112    -183.488     -73.163
  O      115.421    -183.008     -70.757
  H      115.140    -183.541     -73.218
  H      118.693    -185.282     -70.316
  H      117.054    -185.547     -70.862
  H      117.366    -184.468     -69.523

 6  7  8  9  10  11  12  13  14  15  26  29  33  34 0
 6-311+G(2d,p)
 ****
 36  38  39  40  41 0
 6-311+G(2d,p)
 ****
 1  2  3  4  5  16  17  18  19  20  21  22  23  24  25 0
 3-21G
 ****
 27  28  30  31  32  35  37  42  43  44  45  46  47 0
 3-21G
 ****
 48  49 0
 3-21G
 ****


