%nproc=1
%NoSave
%Mem=1900MB
#P OB98/GEN NMR

erre ene a

0 1
  C      216.168     102.495     441.172
  O      216.587     103.596     440.393
  H      215.113     102.274     440.984
  H      216.766     101.622     440.895
  H      216.322     102.705     442.234
  P      215.754     104.955     440.577
  C      216.828     105.323     442.907
  O      215.629     105.202     442.159
  C      216.736     106.508     443.859
  O      216.714     107.744     443.118
  C      215.482     106.535     444.726
  O      215.579     105.646     445.827
  C      215.481     107.990     445.174
  O      216.399     108.159     446.271
  C      216.006     108.720     443.930
  N      213.597     113.100     442.752
  C      214.611     112.830     443.607
  N      215.192     111.644     443.876
  C      214.637     110.663     443.145
  C      213.600     110.785     442.235
  C      213.066     112.073     442.051
  N      212.024     112.332     441.189
  N      213.304     109.567     441.663
  C      214.148     108.720     442.218
  N      214.971     109.334     443.126
  O      214.266     104.542     440.149
  O      216.247     106.120     439.785
  H      217.209     107.670     446.035
  H      213.845     105.298     439.695
  H      215.011     113.686     444.144
  H      214.204     107.663     441.990
  H      216.735     109.497     444.197
  H      214.501     108.335     445.512
  H      214.584     106.340     444.129
  H      217.638     106.510     444.486
  H      217.670     105.478     442.223
  H      211.817     113.290     440.953
  H      211.639     111.558     440.661
  H      216.992     104.397     443.465
  P      214.244     105.376     446.681
  C      213.326     104.191     444.564
  O      213.083     105.138     445.597
  O      213.897     106.820     447.277
  O      214.371     104.345     447.749
  H      213.374     106.725     448.098
  H      212.472     104.138     443.921
  H      213.507     103.229     444.997
  H      214.181     104.493     443.997

 6  7  8  9  10  11  12  13  14  15  25  28  32  33  34  35 0
 6-311+G(2d,p)
 ****
 36  39  40 0
 6-311+G(2d,p)
 ****
 1  2  3  4  5  16  17  18  19  20  21  22  23  24 0
 3-21G
 ****
 26  27  29  30  31  37  38  41  42  43  44  45  46  47  48 0
 3-21G
 ****


