%nproc=1
%NoSave
%Mem=1900MB
#P OB98/GEN NMR

erre ene a

0 1
  C       39.131     -33.678       0.200
  O       39.821     -34.508      -0.713
  H       39.167     -34.140       1.190
  H       38.083     -33.568      -0.095
  H       39.608     -32.695       0.256
  P       39.845     -34.090      -2.258
  C       37.839     -35.606      -2.869
  O       38.349     -34.279      -2.800
  C       37.288     -35.899      -4.262
  O       36.317     -34.903      -4.637
  C       38.342     -35.887      -5.363
  O       39.126     -37.061      -5.318
  C       37.459     -35.736      -6.593
  O       36.857     -36.990      -6.950
  C       36.388     -34.744      -6.074
  N       36.661     -33.355      -6.429
  C       36.486     -33.019      -7.776
  O       36.138     -33.875      -8.589
  N       36.732     -31.724      -8.164
  C       37.076     -30.836      -7.285
  N       37.300     -29.572      -7.734
  C       37.237     -31.142      -5.850
  C       37.027     -32.409      -5.499
  O       40.895     -34.742      -3.104
  O       40.019     -32.499      -2.224
  H       36.471     -37.348      -6.127
  H       40.961     -32.256      -2.297
  H       37.516     -30.368      -5.151
  H       37.125     -32.718      -4.461
  H       35.399     -35.008      -6.470
  H       38.016     -35.388      -7.462
  H       38.969     -34.992      -5.279
  H       36.771     -36.868      -4.224
  H       37.157     -29.406      -8.724
  H       37.039     -35.683      -2.124
  H       37.410     -28.775      -7.125
  H       38.618     -36.333      -2.611
  P       40.649     -37.075      -5.820
  C       39.750     -37.064      -8.229
  O       40.626     -36.447      -7.298
  O       41.343     -38.390      -5.708
  O       41.338     -35.913      -4.963
  H       41.518     -36.225      -4.041
  H       39.821     -36.563      -9.172
  H       38.745     -37.003      -7.867
  H       40.024     -38.091      -8.350

 6  7  8  9  10  11  12  13  14  15  16  26  30  31  32  33  35 0
 6-311+G(2d,p)
 ****
 37  38 0
 6-311+G(2d,p)
 ****
 1  2  3  4  5  17  18  19  20  21  22  23  24  25 0
 3-21G
 ****
 27  28  29  34  36  39  40  41  42  43  44  45  46 0
 3-21G
 ****


