%nproc=1
%NoSave
%Mem=1900MB
#P OB98/GEN NMR

erre ene a

0 1
  C      290.990     980.353     312.862
  O      290.320     980.613     314.080
  P      288.723     980.472     314.101
  C      286.747     981.707     312.936
  O      288.122     981.716     313.293
  C      286.048     982.920     313.575
  O      286.707     984.148     313.208
  C      284.596     983.091     313.123
  O      283.742     982.189     313.805
  C      284.339     984.554     313.462
  O      283.993     984.715     314.847
  C      285.713     985.191     313.176
  N      285.743     985.939     311.914
  C      285.281     987.233     311.964
  O      284.846     987.758     312.999
  N      285.293     987.928     310.785
  C      285.657     987.423     309.568
  O      285.587     988.077     308.533
  C      286.110     986.027     309.562
  C      286.130     985.352     310.716
  O      288.325     980.761     315.613
  O      288.214     979.144     313.638
  H      284.117     985.670     315.055
  H      287.564     980.201     315.878
  H      284.979     988.883     310.797
  H      286.414     985.602     308.622
  H      286.448     984.312     310.743
  H      285.984     985.887     313.979
  H      283.525     984.972     312.876
  H      284.533     982.953     312.032
  H      286.093     982.816     314.665
  H      286.281     980.792     313.284
  H      286.664     981.754     311.844
  P      282.402     981.741     313.030
  C      280.577     983.262     311.919
  O      281.479     983.064     312.990
  O      281.717     980.788     314.120
  O      282.675     981.076     311.725
  H      281.914     981.085     315.037
  H      280.143     982.315     311.579
  H      281.098     983.747     311.094
  H      279.774     983.913     312.257
  H      292.043     980.486     312.999
  H      290.640     981.030     312.111
  H      290.794     979.347     312.555

 3  4  5  6  7  8  9  10  11  12  13  23  28  29  30  31  32 0
 6-311+G(2d,p)
 ****
 33  34 0
 6-311+G(2d,p)
 ****
 1  2  14  15  16  17  18  19  20  21  22  24  25  26 0
 3-21G
 ****
 27  35  36  37  38  39  40  41  42  43  44  45 0
 3-21G
 ****


