%nproc=1
%NoSave
%Mem=1900MB
#P OB98/GEN NMR

erre ene a

0 1
  C     -474.698     118.401      78.456
  O     -474.812     118.820      77.111
  H     -475.473     117.654      78.654
  H     -474.851     119.247      79.129
  H     -473.721     117.947      78.641
  P     -473.726     119.846      76.526
  C     -474.139     119.033      74.122
  O     -474.147     120.144      75.005
  C     -473.601     119.439      72.749
  O     -474.462     120.472      72.197
  C     -472.170     119.993      72.790
  O     -471.480     119.546      71.624
  C     -472.373     121.496      72.719
  O     -471.246     122.166      72.155
  C     -473.637     121.602      71.862
  N     -473.653     126.566      70.918
  C     -472.824     125.569      70.439
  N     -471.837     125.953      69.600
  N     -472.951     124.305      70.756
  C     -473.993     124.065      71.592
  C     -474.879     124.963      72.137
  C     -474.719     126.359      71.792
  O     -475.412     127.286      72.195
  N     -475.780     124.334      72.965
  C     -475.431     123.061      72.919
  N     -474.347     122.846      72.108
  O     -472.298     119.438      76.702
  O     -474.048     121.221      77.274
  H     -470.454     121.861      72.648
  H     -473.428     121.365      78.013
  H     -473.504     127.523      70.649
  H     -475.925     122.260      73.455
  H     -473.416     121.568      70.789
  H     -472.545     121.893      73.725
  H     -471.689     126.902      69.297
  H     -471.620     119.692      73.687
  H     -471.232     125.232      69.215
  H     -473.670     118.576      72.080
  H     -475.171     118.669      74.020
  H     -473.521     118.234      74.546
  P     -470.734     118.127      71.666
  C     -470.528     117.934      69.104
  O     -469.833     117.995      70.345
  O     -471.603     116.949      71.964
  O     -469.634     118.342      72.815
  H     -469.464     117.482      73.248
  H     -469.823     117.848      68.304
  H     -471.106     118.825      68.975
  H     -471.177     117.084      69.100

 6  7  8  9  10  11  12  13  14  15  26  29  33  34 0
 6-311+G(2d,p)
 ****
 36  38  39  40  41 0
 6-311+G(2d,p)
 ****
 1  2  3  4  5  16  17  18  19  20  21  22  23  24  25 0
 3-21G
 ****
 27  28  30  31  32  35  37  42  43  44  45  46  47 0
 3-21G
 ****
 48  49 0
 3-21G
 ****


