%nproc=1
%NoSave
%Mem=1900MB
#P OB98/GEN NMR

erre ene a

0 1
  C       94.318     -54.630     -16.254
  O       93.752     -54.555     -17.548
  H       95.387     -54.408     -16.328
  H       94.196     -55.630     -15.831
  H       93.852     -53.889     -15.599
  P       92.259     -55.108     -17.752
  C       92.854     -57.285     -19.002
  O       92.398     -56.710     -17.780
  C       92.817     -58.811     -18.943
  O       93.751     -59.308     -17.962
  C       91.472     -59.386     -18.526
  O       90.431     -59.181     -19.452
  C       91.848     -60.804     -18.129
  O       91.939     -61.679     -19.253
  C       93.252     -60.588     -17.512
  N       93.238     -60.678     -16.056
  C       92.848     -61.902     -15.526
  O       92.506     -62.864     -16.215
  N       92.828     -61.981     -14.160
  C       93.109     -60.964     -13.297
  O       93.053     -61.094     -12.079
  C       93.478     -59.681     -13.915
  C       93.527     -59.598     -15.248
  O       91.513     -54.544     -18.925
  O       91.551     -54.830     -16.346
  H       92.184     -62.559     -18.910
  H       90.567     -54.901     -16.421
  H       92.562     -62.866     -13.756
  H       93.695     -58.849     -13.261
  H       93.799     -58.661     -15.729
  H       93.954     -61.343     -17.890
  H       91.127     -61.243     -17.435
  H       91.155     -58.880     -17.604
  H       93.127     -59.195     -19.921
  H       93.886     -56.954     -19.161
  H       92.235     -56.922     -19.828
  P       88.989     -58.628     -19.056
  C       87.799     -60.952     -19.189
  O       88.146     -59.822     -18.397
  O       88.307     -57.757     -20.061
  O       89.333     -57.712     -17.771
  H       88.715     -56.955     -17.783
  H       87.242     -61.646     -18.595
  H       88.690     -61.424     -19.547
  H       87.204     -60.636     -20.020

 6  7  8  9  10  11  12  13  14  15  16  26  31  32  33  34  35 0
 6-311+G(2d,p)
 ****
 36  37 0
 6-311+G(2d,p)
 ****
 1  2  3  4  5  17  18  19  20  21  22  23  24  25 0
 3-21G
 ****
 27  28  29  30  38  39  40  41  42  43  44  45 0
 3-21G
 ****


