%nproc=1
%NoSave
%Mem=1900MB
#P OB98/GEN NMR

erre ene a

0 1
  C      588.359    -265.957     859.501
  O      586.955    -266.024     859.603
  H      588.743    -266.948     859.245
  H      588.798    -265.644     860.458
  H      588.656    -265.251     858.715
  P      586.193    -264.650     859.960
  C      586.629    -262.672     861.578
  O      586.998    -263.985     861.171
  C      586.683    -262.567     863.103
  O      587.786    -263.354     863.613
  C      586.906    -261.167     863.621
  O      585.726    -260.379     863.591
  C      587.405    -261.440     865.034
  O      586.323    -261.661     865.944
  C      588.231    -262.733     864.845
  N      592.381    -261.714     867.652
  C      591.095    -262.004     868.016
  N      590.050    -262.279     867.191
  C      590.431    -262.250     865.900
  C      591.693    -261.960     865.398
  C      592.698    -261.686     866.350
  N      593.995    -261.361     865.995
  N      591.698    -261.993     864.026
  C      590.448    -262.297     863.682
  N      589.659    -262.469     864.784
  O      584.834    -265.163     860.637
  O      585.929    -263.758     858.790
  H      585.761    -260.858     865.902
  H      584.104    -265.124     859.974
  H      590.886    -262.024     869.077
  H      590.080    -262.392     862.670
  H      588.057    -263.452     865.655
  H      587.996    -260.602     865.406
  H      587.703    -260.671     863.056
  H      585.752    -262.994     863.518
  H      585.614    -262.451     861.236
  H      587.326    -261.955     861.132
  H      594.642    -261.110     866.722
  H      594.216    -261.240     865.018
  P      585.851    -258.835     863.179
  C      587.413    -256.853     863.843
  O      586.953    -258.174     864.118
  O      584.484    -258.186     863.669
  O      586.094    -258.612     861.721
  H      584.189    -257.486     863.029
  H      588.147    -256.572     864.570
  H      586.589    -256.172     863.887
  H      587.849    -256.823     862.866

 6  7  8  9  10  11  12  13  14  15  25  28  32  33  34  35 0
 6-311+G(2d,p)
 ****
 36  37  40 0
 6-311+G(2d,p)
 ****
 1  2  3  4  5  16  17  18  19  20  21  22  23  24 0
 3-21G
 ****
 26  27  29  30  31  38  39 41  42  43  44  45  46  47  48 0
 3-21G
 ****


