%nproc=1
%NoSave
%Mem=1900MB
#P OB98/GEN NMR

erre ene a

0 1
  C      -44.631      59.074      33.034
  O      -44.042      58.436      31.912
  P      -42.448      58.272      31.794
  C      -42.870      55.741      31.491
  O      -42.159      56.749      32.197
  C      -42.034      55.241      30.316
  O      -40.697      54.944      30.768
  C      -42.548      53.959      29.676
  O      -43.673      54.218      28.848
  C      -41.297      53.477      28.949
  O      -41.126      54.194      27.717
  C      -40.182      53.871      29.942
  N      -39.729      52.750      30.757
  C      -38.590      52.075      30.312
  O      -38.006      52.426      29.290
  N      -38.110      51.028      31.060
  C      -38.727      50.670      32.144
  N      -38.169      49.672      32.882
  C      -39.962      51.319      32.621
  C      -40.399      52.341      31.891
  O      -41.658      59.280      32.557
  O      -42.159      58.277      30.225
  H      -41.798      53.848      27.095
  H      -42.018      59.181      29.850
  H      -40.447      50.976      33.524
  H      -41.288      52.885      32.184
  H      -39.324      54.286      29.403
  H      -41.313      52.409      28.714
  H      -42.830      53.231      30.445
  H      -41.973      56.044      29.571
  H      -37.234      49.378      32.614
  H      -43.801      56.173      31.108
  H      -38.412      49.533      33.855
  H      -43.116      54.923      32.177
  P      -44.475      52.955      28.273
  C      -46.029      52.875      30.346
  O      -45.074      52.195      29.555
  O      -43.314      51.992      27.743
  O      -45.466      53.288      27.207
  H      -43.229      52.061      26.773
  H      -46.502      52.153      31.016
  H      -46.801      53.330      29.718
  H      -45.536      53.643      30.948
  H      -45.695      59.081      32.922
  H      -44.272      60.080      33.101
  H      -44.370      58.542      33.925

 3  4  5  6  7  8  9  10  11  12  13  23  27  28  29  30  32 0
 6-311+G(2d,p)
 ****
 34  35 0
 6-311+G(2d,p)
 ****
 1  2  14  15  16  17  18  19  20  21  22  24  25  26 0
 3-21G
 ****
 31  33  36  37  38  39  40  41  42  43  44  45  46 0
 3-21G
 ****


