%nproc=1
%NoSave
%Mem=1900MB
#P OB98/GEN NMR

erre ene a

0 1
  C      209.834    -199.757     487.702
  O      209.462    -198.420     487.970
  P      209.542    -197.371     486.748
  C      211.784    -196.356     487.597
  O      211.099    -197.018     486.533
  C      213.074    -195.711     487.093
  O      213.608    -194.859     488.142
  C      214.188    -196.704     486.698
  O      214.886    -196.123     485.592
  C      215.049    -196.726     487.947
  O      216.350    -197.255     487.752
  C      214.985    -195.253     488.344
  N      218.669    -193.416     491.397
  C      218.537    -193.431     490.045
  N      217.522    -193.930     489.308
  C      216.568    -194.447     490.101
  C      216.569    -194.517     491.477
  C      217.688    -193.971     492.134
  N      217.820    -193.964     493.518
  N      215.429    -195.144     491.951
  C      214.750    -195.444     490.859
  N      215.391    -195.023     489.721
  O      208.942    -196.033     487.388
  O      208.809    -197.787     485.507
  H      216.295    -198.129     487.317
  H      208.392    -195.549     486.731
  H      219.351    -192.982     489.482
  H      213.807    -195.977     490.846
  H      215.614    -194.628     487.707
  H      214.563    -197.346     488.705
  H      213.805    -197.685     486.404
  H      212.830    -195.068     486.239
  H      212.051    -197.106     488.356
  H      218.740    -193.734     493.872
  H      217.188    -194.554     494.037
  H      211.123    -195.625     488.053
  P      215.843    -197.058     484.700
  C      217.729    -195.614     485.695
  O      217.281    -196.915     485.408
  O      216.041    -196.142     483.400
  O      215.345    -198.429     484.423
  H      216.306    -195.231     483.636
  H      218.659    -195.661     486.257
  H      216.980    -195.074     486.298
  H      217.906    -195.057     484.759
  H      209.735    -200.340     488.593
  H      210.851    -199.785     487.369
  H      209.198    -200.158     486.940

 3  4  5  6  7  8  9  10  11  12  22  25  29  30  31  32 0
 6-311+G(2d,p)
 ****
 33  36  37 0
 6-311+G(2d,p)
 ****
 1  2  13  14  15  16  17  18  19  20  21  23  24  26 0
 3-21G
 ****
 27  28  34  35  38  39  40  41  42  43  44  45  46  47  48 0
 3-21G
 ****


