%nproc=1
%NoSave
%Mem=1900MB
#P OB98/GEN NMR

erre ene a

0 1
  C      403.941    -700.207    -318.060
  O      403.120    -701.359    -318.227
  P      401.739    -701.173    -319.027
  C      400.224    -700.049    -317.241
  O      400.579    -701.249    -317.908
  C      398.826    -700.160    -316.630
  O      397.835    -700.179    -317.670
  C      398.597    -701.440    -315.825
  O      399.102    -701.338    -314.502
  C      397.080    -701.493    -315.810
  O      396.566    -700.580    -314.813
  C      396.720    -700.995    -317.209
  N      393.576    -702.761    -320.836
  C      393.502    -701.691    -320.018
  N      394.375    -701.292    -319.080
  C      395.399    -702.147    -318.978
  C      395.597    -703.305    -319.721
  C      394.631    -703.596    -320.708
  N      394.730    -704.679    -321.548
  N      396.767    -703.927    -319.339
  C      397.271    -703.172    -318.404
  N      396.486    -702.071    -318.153
  O      401.584    -702.558    -319.812
  O      401.690    -699.994    -319.945
  H      397.012    -700.798    -313.978
  H      401.007    -702.438    -320.588
  H      392.616    -701.063    -320.145
  H      398.207    -703.350    -317.879
  H      395.837    -700.355    -317.217
  H      396.689    -702.484    -315.556
  H      398.987    -702.322    -316.355
  H      398.653    -699.267    -316.006
  H      400.235    -699.211    -317.951
  H      394.104    -704.716    -322.338
  H      395.611    -705.184    -321.583
  H      400.962    -699.842    -316.459
  P      400.239    -702.405    -314.077
  C      398.479    -704.307    -313.889
  O      399.455    -703.520    -313.234
  O      401.081    -701.606    -312.974
  O      401.074    -702.885    -315.208
  H      401.993    -701.960    -312.937
  H      398.285    -705.203    -313.290
  H      398.817    -704.620    -314.880
  H      397.552    -703.745    -313.981
  H      404.822    -700.473    -317.514
  H      403.399    -699.458    -317.521
  H      404.219    -699.825    -319.020

 3  4  5  6  7  8  9  10  11  12  22  25  29  30  31  32 0
 6-311+G(2d,p)
 ****
 33  36  37 0
 6-311+G(2d,p)
 ****
 1  2  13  14  15  16  17  18  19  20  21  23  24  26 0
 3-21G
 ****
 27  28  34  35  38  39  40  41  42  43  44  45  46  47  48 0
 3-21G
 ****


