%nproc=1
%NoSave
%Mem=1900MB
#P OB98/GEN NMR

erre ene a

0 1
  C     -207.208     -59.726     -41.768
  O     -206.673     -60.593     -40.783
  P     -206.482     -60.012     -39.296
  C     -204.205     -59.027     -40.092
  O     -205.426     -58.808     -39.405
  C     -203.015     -58.655     -39.204
  O     -203.067     -57.230     -38.936
  C     -202.978     -59.368     -37.846
  O     -201.596     -59.542     -37.503
  C     -203.612     -58.356     -36.908
  O     -203.263     -58.575     -35.545
  C     -203.086     -57.055     -37.500
  N     -203.158     -52.356     -35.624
  C     -202.108     -53.251     -35.735
  N     -200.898     -52.802     -35.340
  N     -202.235     -54.470     -36.188
  C     -203.502     -54.770     -36.560
  C     -204.630     -53.988     -36.461
  C     -204.469     -52.631     -35.992
  O     -205.354     -51.778     -35.961
  N     -205.752     -54.671     -36.852
  C     -205.289     -55.838     -37.262
  N     -203.927     -55.928     -37.146
  O     -205.660     -61.173     -38.564
  O     -207.742     -59.656     -38.573
  H     -203.667     -57.860     -35.014
  H     -206.258     -61.785     -38.093
  H     -202.995     -51.423     -35.283
  H     -205.886     -56.646     -37.652
  H     -202.066     -56.823     -37.170
  H     -204.704     -58.415     -36.988
  H     -200.720     -51.864     -35.010
  H     -203.496     -60.333     -37.842
  H     -200.104     -53.425     -35.440
  H     -202.093     -58.850     -39.764
  H     -204.183     -58.394     -40.985
  H     -204.141     -60.074     -40.407
  P     -201.199     -60.817     -36.616
  C     -201.048     -59.822     -34.229
  O     -201.796     -60.592     -35.148
  O     -199.619     -60.624     -36.403
  O     -201.492     -62.138     -37.248
  H     -199.190     -61.496     -36.346
  H     -201.724     -59.432     -33.464
  H     -200.549     -58.980     -34.718
  H     -200.300     -60.457     -33.747
  H     -207.277     -60.246     -42.701
  H     -206.568     -58.876     -41.880
  H     -208.182     -59.402     -41.467

 3  4  5  6  7  8  9  10  11  12  23  26  30  31 0
 6-311+G(2d,p)
 ****
 33  35  36  37  38 0
 6-311+G(2d,p)
 ****
 1  2  13  14  15  16  17  18  19  20  21  22  24  25 0
 3-21G
 ****
 27  28  29  32  34  39  40  41  42  43  44  45  46  47  48  49 0
 3-21G
 ****


