%nproc=1
%NoSave
%Mem=1900MB
#P OB98/GEN NMR

erre ene a

0 1
  C     -613.756     -43.011    -136.972
  O     -614.040     -41.882    -136.156
  P     -613.629     -41.971    -134.610
  C     -616.103     -41.628    -133.851
  O     -614.937     -42.444    -133.803
  C     -617.148     -42.150    -132.875
  O     -617.542     -43.488    -133.246
  C     -616.673     -42.256    -131.432
  O     -616.631     -40.974    -130.816
  C     -617.732     -43.193    -130.856
  O     -618.951     -42.479    -130.580
  C     -617.942     -44.179    -132.025
  N     -618.156     -49.268    -131.421
  C     -619.125     -48.319    -131.479
  N     -618.995     -46.982    -131.620
  C     -617.691     -46.647    -131.708
  C     -616.589     -47.487    -131.636
  C     -616.864     -48.861    -131.493
  N     -615.876     -49.816    -131.426
  N     -615.415     -46.787    -131.738
  C     -615.794     -45.529    -131.880
  N     -617.163     -45.389    -131.882
  O     -613.465     -40.437    -134.184
  O     -612.385     -42.761    -134.330
  H     -619.557     -43.110    -130.147
  H     -612.759     -40.329    -133.512
  H     -620.153     -48.683    -131.412
  H     -615.125     -44.684    -131.993
  H     -618.993     -44.467    -132.134
  H     -617.416     -43.677    -129.919
  H     -615.682     -42.715    -131.382
  H     -618.034     -41.499    -132.939
  H     -616.519     -41.654    -134.865
  H     -616.147     -50.754    -131.170
  H     -614.917     -49.498    -131.342
  H     -615.824     -40.594    -133.627
  P     -615.763     -40.830    -129.471
  C     -617.699     -39.670    -128.218
  O     -616.878     -40.815    -128.310
  O     -615.309     -39.295    -129.542
  O     -614.662     -41.825    -129.329
  H     -616.064     -38.711    -129.734
  H     -618.427     -39.814    -127.436
  H     -618.222     -39.505    -129.163
  H     -617.075     -38.792    -127.979
  H     -614.080     -42.818    -137.973
  H     -614.272     -43.867    -136.589
  H     -612.703     -43.198    -136.968

 3  4  5  6  7  8  9  10  11  12  22  25  29  30  31  32 0
 6-311+G(2d,p)
 ****
 33  36  37 0
 6-311+G(2d,p)
 ****
 1  2  13  14  15  16  17  18  19  20  21  23  24  26 0
 3-21G
 ****
 27  28  34  35  38  39  40  41  42  43  44  45  46  47  48 0
 3-21G
 ****


