%nproc=1
%NoSave
%Mem=1900MB
#P OB98/GEN NMR

erre ene a

0 1
  C       87.725      12.141    -168.808
  O       88.297      12.864    -169.908
  P       89.392      13.987    -169.564
  C       90.956      13.397    -171.591
  O       90.094      14.346    -170.962
  C       91.042      13.680    -173.087
  O       89.845      13.213    -173.762
  C       91.159      15.162    -173.443
  O       92.454      15.662    -173.170
  C       90.775      15.132    -174.921
  O       91.892      14.728    -175.722
  C       89.680      14.035    -174.940
  N       88.330      14.574    -175.034
  C       87.860      14.835    -176.321
  O       88.542      14.640    -177.337
  N       86.588      15.330    -176.411
  C       85.774      15.625    -175.363
  O       84.629      16.067    -175.500
  C       86.336      15.386    -174.013
  C       87.568      14.877    -173.916
  O       90.490      13.121    -168.777
  O       88.829      15.143    -168.805
  H       90.573      12.213    -169.129
  H       92.531      15.471    -175.697
  H       86.228      15.515    -177.332
  H       85.719      15.628    -173.158
  H       88.007      14.698    -172.937
  H       89.837      13.369    -175.805
  H       90.439      16.114    -175.283
  H       90.408      15.739    -172.878
  H       91.904      13.127    -173.497
  H       90.580      12.382    -171.434
  H       91.943      13.462    -171.119
  P       92.549      17.051    -172.370
  C       93.902      15.943    -170.422
  O       93.832      16.937    -171.418
  O       91.304      16.916    -171.368
  O       92.497      18.254    -173.248
  H       91.252      16.033    -170.951
  H       94.949      15.803    -170.127
  H       93.511      14.990    -170.785
  H       93.334      16.258    -169.541
  H       87.016      11.430    -169.178
  H       87.233      12.825    -168.149
  H       88.500      11.629    -168.276

 3  4  5  6  7  8  9  10  11  12  13  24  28  29  30  31  32 0
 6-311+G(2d,p)
 ****
 33  34 0
 6-311+G(2d,p)
 ****
 1  2  14  15  16  17  18  19  20  21  22  23  25  26  27 0
 3-21G
 ****
 35  36  37  38  39  40  41  42  43  44  45 0
 3-21G
 ****


