%nproc=1
%NoSave
%Mem=1900MB
#P OB98/GEN NMR

erre ene a

0 1
  C     -136.018      13.899     -25.585
  O     -135.569      13.266     -24.397
  P     -136.587      12.933     -23.199
  C     -138.139      14.424     -21.765
  O     -136.969      14.358     -22.571
  C     -138.039      15.606     -20.802
  O     -137.199      15.253     -19.686
  C     -137.422      16.861     -21.407
  O     -138.348      17.536     -22.244
  C     -137.007      17.614     -20.146
  O     -138.142      18.280     -19.567
  C     -136.549      16.462     -19.227
  N     -135.098      16.302     -19.198
  C     -134.477      16.476     -17.956
  O     -135.132      16.741     -16.949
  N     -133.114      16.311     -17.873
  C     -132.429      16.021     -18.938
  N     -131.093      15.802     -18.783
  C     -133.036      15.883     -20.274
  C     -134.361      16.029     -20.329
  O     -136.090      11.929     -22.213
  O     -137.942      12.504     -23.930
  H     -138.464      18.916     -20.237
  H     -137.990      11.536     -24.138
  H     -132.422      15.654     -21.134
  H     -134.886      15.922     -21.270
  H     -136.907      16.628     -18.203
  H     -136.230      18.366     -20.322
  H     -136.529      16.604     -21.992
  H     -139.047      15.823     -20.420
  H     -130.752      15.735     -17.830
  H     -138.217      13.497     -21.186
  H     -130.556      15.304     -19.482
  H     -139.019      14.513     -22.410
  P     -137.809      18.096     -23.647
  C     -135.746      19.554     -24.245
  O     -136.732      19.233     -23.281
  O     -139.063      18.902     -24.229
  O     -137.327      17.042     -24.590
  H     -139.522      18.373     -24.908
  H     -135.259      20.486     -23.946
  H     -136.198      19.692     -25.231
  H     -134.992      18.762     -24.286
  H     -135.192      14.031     -26.253
  H     -136.438      14.853     -25.344
  H     -136.762      13.290     -26.054

 3  4  5  6  7  8  9  10  11  12  13  23  27  28  29  30  32 0
 6-311+G(2d,p)
 ****
 34  35 0
 6-311+G(2d,p)
 ****
 1  2  14  15  16  17  18  19  20  21  22  24  25  26 0
 3-21G
 ****
 31  33  36  37  38  39  40  41  42  43  44  45  46 0
 3-21G
 ****


