%nproc=1
%NoSave
%Mem=1900MB
#P OB98/GEN NMR

erre ene a

0 1
  C        1.945       8.540      -4.299
  O        2.118       8.497      -2.896
  H        1.343       7.681      -4.605
  H        2.918       8.482      -4.795
  H        1.429       9.459      -4.593
  P        2.826       9.769      -2.217
  C        1.340       9.747      -0.052
  O        2.620       9.586      -0.637
  C        1.335       9.221       1.384
  O        1.121       7.787       1.352
  C        2.638       9.483       2.140
  O        2.323       9.742       3.509
  C        3.375       8.158       2.037
  O        4.338       7.996       3.074
  C        2.204       7.162       2.070
  N        2.558       5.867       1.492
  C        3.002       4.883       2.380
  O        3.094       5.129       3.584
  N        3.371       3.659       1.885
  C        3.363       3.455       0.605
  N        3.765       2.229       0.174
  C        2.945       4.478      -0.373
  C        2.550       5.644       0.135
  O        1.815      10.949      -2.599
  O        4.234       9.997      -2.654
  H        4.891       8.807       3.115
  H        0.881      10.714      -2.474
  H        2.965       4.264      -1.431
  H        2.219       6.450      -0.509
  H        1.869       6.998       3.102
  H        3.900       8.093       1.077
  H        3.207      10.318       1.726
  H        0.479       9.657       1.911
  H        4.065       1.565       0.877
  H        0.584       9.214      -0.637
  H        3.851       1.978      -0.799
  H        1.093      10.813      -0.068
  P        2.268      11.253       4.033
  C        0.303      10.904       5.679
  O        1.667      11.278       5.519
  O        1.676      12.244       3.090
  O        3.820      11.591       4.290
  H        3.980      12.504       3.980
  H        0.035      10.965       6.713
  H        0.165       9.901       5.334
  H       -0.317      11.565       5.110

 6  7  8  9  10  11  12  13  14  15  16  26  30  31  32  33  35 0
 6-311+G(2d,p)
 ****
 37  38 0
 6-311+G(2d,p)
 ****
 1  2  3  4  5  17  18  19  20  21  22  23  24  25 0
 3-21G
 ****
 27  28  29  34  36  39  40  41  42  43  44  45  46 0
 3-21G
 ****


