%nproc=1
%NoSave
%Mem=1900MB
#P OB98/GEN NMR

erre ene a

0 1
  C     -423.591    -177.999    -100.253
  O     -423.861    -176.649     -99.935
  H     -424.537    -178.512    -100.438
  H     -423.087    -178.488     -99.416
  H     -422.973    -178.072    -101.152
  P     -422.637    -175.622     -99.817
  C     -422.787    -174.917    -102.292
  O     -421.986    -175.507    -101.277
  C     -422.013    -173.793    -102.976
  O     -422.794    -173.235    -104.055
  C     -421.679    -172.622    -102.059
  O     -420.605    -172.946    -101.196
  C     -421.374    -171.539    -103.083
  O     -420.043    -171.686    -103.600
  C     -422.429    -171.843    -104.175
  N     -423.607    -170.983    -104.092
  C     -423.374    -169.610    -104.106
  O     -422.247    -169.122    -104.145
  N     -424.490    -168.816    -104.054
  C     -425.775    -169.248    -103.907
  O     -426.736    -168.491    -103.810
  C     -425.958    -170.707    -103.863
  C     -424.883    -171.494    -103.957
  O     -421.665    -175.893     -98.716
  O     -423.355    -174.203     -99.631
  H     -419.438    -171.631    -102.833
  H     -423.344    -173.949     -98.689
  H     -424.341    -167.820    -104.051
  H     -426.962    -171.086    -103.741
  H     -424.996    -172.572    -103.921
  H     -421.986    -171.720    -105.173
  H     -421.440    -170.534    -102.666
  H     -422.564    -172.324    -101.486
  H     -421.099    -174.221    -103.409
  H     -423.694    -174.509    -101.832
  H     -423.069    -175.688    -103.014
  P     -419.780    -171.796    -100.450
  C     -420.810    -172.169     -98.136
  O     -420.680    -171.270     -99.230
  O     -419.242    -170.722    -101.335
  O     -418.598    -172.584     -99.716
  H     -417.754    -172.428    -100.185
  H     -421.425    -171.726     -97.381
  H     -419.843    -172.379     -97.730
  H     -421.260    -173.079     -98.474

 6  7  8  9  10  11  12  13  14  15  16  26  31  32  33  34  35 0
 6-311+G(2d,p)
 ****
 36  37 0
 6-311+G(2d,p)
 ****
 1  2  3  4  5  17  18  19  20  21  22  23  24  25 0
 3-21G
 ****
 27  28  29  30  38  39  40  41  42  43  44  45 0
 3-21G
 ****


