%nproc=1
%NoSave
%Mem=1900MB
#P OB98/GEN NMR

erre ene a

0 1
  C      210.332    -234.712     -17.791
  O      209.763    -235.948     -18.170
  H      211.403    -234.852     -17.621
  H      209.875    -234.349     -16.865
  H      210.193    -233.972     -18.585
  P      208.168    -235.968     -18.364
  C      207.948    -237.082     -16.013
  O      207.610    -235.989     -16.856
  C      206.711    -237.540     -15.245
  O      206.373    -236.592     -14.209
  C      205.457    -237.668     -16.107
  O      205.433    -238.860     -16.875
  C      204.387    -237.667     -15.028
  O      204.353    -238.950     -14.380
  C      204.925    -236.576     -14.073
  N      204.397    -235.243     -14.368
  C      203.222    -234.873     -13.704
  O      202.671    -235.649     -12.925
  N      202.676    -233.636     -13.963
  C      203.254    -232.836     -14.803
  N      202.661    -231.635     -15.034
  C      204.501    -233.179     -15.511
  C      205.010    -234.382     -15.252
  O      207.869    -237.458     -18.867
  O      207.598    -234.897     -19.232
  H      203.636    -238.916     -13.721
  H      206.893    -237.611     -18.897
  H      204.942    -232.483     -16.212
  H      205.925    -234.704     -15.736
  H      204.694    -236.821     -13.030
  H      203.386    -237.477     -15.420
  H      205.314    -236.788     -16.744
  H      206.953    -238.491     -14.752
  H      201.774    -231.452     -14.581
  H      208.724    -236.750     -15.315
  H      202.938    -231.026     -15.797
  H      208.333    -237.915     -16.610
  P      204.657    -238.824     -18.281
  C      202.459    -239.747     -17.246
  O      203.092    -238.687     -17.949
  O      204.789    -240.329     -18.804
  O      205.190    -237.832     -19.271
  H      204.932    -240.355     -19.769
  H      201.425    -239.511     -17.101
  H      202.932    -239.877     -16.295
  H      202.543    -240.651     -17.813

 6  7  8  9  10  11  12  13  14  15  16  26  30  31  32  33  35 0
 6-311+G(2d,p)
 ****
 37  38 0
 6-311+G(2d,p)
 ****
 1  2  3  4  5  17  18  19  20  21  22  23  24  25 0
 3-21G
 ****
 27  28  29  34  36  39  40  41  42  43  44  45  46 0
 3-21G
 ****


