%nproc=1
%NoSave
%Mem=1900MB
#P OB98/GEN NMR

erre ene a

0 1
  C      307.428    -166.320     124.397
  O      308.013    -167.472     124.966
  H      307.917    -166.113     123.442
  H      307.576    -165.462     125.058
  H      306.361    -166.476     124.222
  P      307.346    -168.056     126.303
  C      306.520    -170.433     126.944
  O      307.453    -169.658     126.208
  C      306.498    -171.872     126.427
  O      305.698    -171.921     125.216
  C      307.886    -172.427     126.095
  O      307.932    -173.806     126.480
  C      307.964    -172.321     124.582
  O      308.875    -173.259     124.011
  C      306.497    -172.525     124.182
  N      306.214    -171.945     122.870
  C      306.506    -172.736     121.759
  O      306.987    -173.863     121.907
  N      306.304    -172.221     120.504
  C      305.928    -170.987     120.371
  N      305.771    -170.521     119.101
  C      305.672    -170.090     121.517
  C      305.826    -170.633     122.725
  O      305.785    -167.780     126.090
  O      307.858    -167.478     127.581
  H      309.765    -173.096     124.396
  H      305.336    -167.616     126.939
  H      305.384    -169.062     121.356
  H      305.669    -170.051     123.627
  H      306.251    -173.595     124.153
  H      308.297    -171.314     124.303
  H      308.697    -171.884     126.588
  H      305.993    -172.501     127.171
  H      305.973    -171.159     118.341
  H      305.522    -169.998     126.824
  H      305.527    -169.567     118.879
  H      306.789    -170.414     128.006
  P      308.778    -174.157     127.793
  C      309.662    -176.303     128.963
  O      308.937    -175.753     127.871
  O      307.771    -173.816     128.987
  O      310.055    -173.390     127.907
  H      308.064    -173.010     129.449
  H      309.681    -177.369     128.877
  H      309.187    -176.028     129.881
  H      310.663    -175.926     128.952

 6  7  8  9  10  11  12  13  14  15  16  26  30  31  32  33  35 0
 6-311+G(2d,p)
 ****
 37  38 0
 6-311+G(2d,p)
 ****
 1  2  3  4  5  17  18  19  20  21  22  23  24  25 0
 3-21G
 ****
 27  28  29  34  36  39  40  41  42  43  44  45  46 0
 3-21G
 ****


