%nproc=1
%NoSave
%Mem=1900MB
#P OB98/GEN NMR

erre ene a

0 1
  C     1722.081     -35.536    -332.312
  O     1721.255     -34.665    -331.500
  P     1721.941     -33.859    -330.280
  C     1722.419     -31.774    -331.732
  O     1722.996     -32.766    -330.886
  C     1723.455     -30.654    -332.004
  O     1723.714     -29.875    -330.764
  C     1724.832     -31.208    -332.471
  O     1725.449     -30.293    -333.371
  C     1725.637     -31.196    -331.154
  O     1727.043     -31.212    -331.453
  C     1725.100     -29.907    -330.516
  N     1728.519     -28.873    -326.808
  C     1728.578     -28.700    -328.150
  N     1727.603     -28.977    -329.066
  C     1726.494     -29.457    -328.462
  C     1726.278     -29.646    -327.098
  C     1727.343     -29.324    -326.257
  N     1727.288     -29.481    -324.897
  N     1724.990     -30.156    -326.879
  C     1724.479     -30.302    -328.089
  N     1725.366     -29.864    -329.095
  O     1722.521     -34.687    -329.185
  O     1720.755     -32.904    -329.731
  H     1727.527     -31.273    -330.653
  H     1720.745     -32.964    -328.771
  H     1729.496     -28.318    -328.555
  H     1723.514     -30.723    -328.242
  H     1725.556     -29.008    -330.969
  H     1725.362     -32.051    -330.566
  H     1724.783     -32.185    -332.920
  H     1723.043     -29.966    -332.736
  H     1721.538     -31.320    -331.253
  H     1728.106     -29.340    -324.355
  H     1726.514     -29.971    -324.447
  H     1722.083     -32.231    -332.673
  P     1726.425     -30.943    -334.474
  C     1725.187     -29.776    -336.520
  O     1725.628     -31.017    -335.832
  O     1727.064     -32.238    -334.008
  O     1727.498     -29.760    -334.692
  H     1727.120     -28.900    -334.895
  H     1724.736     -30.072    -337.429
  H     1726.045     -29.170    -336.619
  H     1724.413     -29.333    -335.846
  H     1721.480     -35.992    -333.071
  H     1722.513     -36.296    -331.694
  H     1722.860     -34.963    -332.770

 3  4  5  6  7  8  9  10  11  12  22  25  29  30  31  32 0
 6-311+G(2d,p)
 ****
 33  36  37 0
 6-311+G(2d,p)
 ****
 1  2  13  14  15  16  17  18  19  20  21  23  24  26 0
 3-21G
 ****
 27  28  34  35  38  39  40  41  42  43  44  45  46  47  48 0
 3-21G
 ****


