%nproc=1
%NoSave
%Mem=1900MB
#P OB98/GEN NMR

erre ene a

0 1
  C       25.389      28.794       9.805
  O       24.678      28.788       8.584
  H       26.104      29.621       9.822
  H       24.680      28.927      10.627
  H       25.915      27.844       9.941
  P       25.546      28.639       7.243
  C       25.536      31.184       6.699
  O       26.301      30.047       7.074
  C       26.399      32.114       5.853
  O       27.449      32.691       6.662
  C       27.104      31.415       4.696
  O       26.265      31.253       3.565
  C       28.227      32.398       4.414
  O       27.712      33.530       3.691
  C       28.638      32.814       5.835
  N       33.627      31.679       5.646
  C       32.885      32.598       4.990
  N       31.566      32.851       5.113
  C       31.011      32.046       6.031
  C       31.640      31.068       6.784
  C       33.016      30.890       6.560
  N       33.769      29.934       7.204
  N       30.733      30.431       7.609
  C       29.583      31.029       7.369
  N       29.693      31.989       6.400
  O       24.452      28.676       6.075
  O       26.438      27.446       7.172
  H       28.460      34.140       3.546
  H       24.842      28.371       5.234
  H       33.422      33.207       4.269
  H       28.647      30.797       7.860
  H       28.976      33.855       5.889
  H       29.025      31.964       3.806
  H       27.538      30.458       5.009
  H       25.768      32.935       5.491
  H       25.208      31.707       7.604
  H       34.708      29.785       6.869
  H       33.297      29.247       7.774
  H       24.659      30.862       6.131
  P       26.551      29.996       2.605
  C       28.118      31.614       1.312
  O       27.930      30.310       1.846
  O       25.450      30.167       1.457
  O       26.466      28.667       3.280
  H       25.164      29.297       1.118
  H       29.076      31.671       0.840
  H       28.066      32.334       2.102
  H       27.353      31.819       0.593

 6  7  8  9  10  11  12  13  14  15  25  28  32  33  34  35 0
 6-311+G(2d,p)
 ****
 36  39  40 0
 6-311+G(2d,p)
 ****
 1  2  3  4  5  16  17  18  19  20  21  22  23  24 0
 3-21G
 ****
 26  27  29  30  31  37  38  41  42  43  44  45  46  47 0
 3-21G
 ****
 48 0
 3-21G
 ****


