%nproc=1
%NoSave
%Mem=1900MB
#P OB98/GEN NMR

erre ene a

0 1
  C        0.809    -176.095      91.591
  O        1.677    -175.102      91.090
  H        0.679    -175.935      92.664
  H        1.247    -177.084      91.434
  H       -0.170    -176.045      91.109
  P        1.788    -174.900      89.507
  C       -0.237    -173.464      88.803
  O        1.136    -173.475      89.165
  C       -0.526    -172.336      87.804
  O       -1.833    -172.553      87.215
  C       -0.571    -170.970      88.498
  O       -0.206    -169.910      87.619
  C       -2.040    -170.827      88.861
  O       -2.442    -169.470      89.046
  C       -2.713    -171.514      87.674
  N       -7.587    -170.582      88.841
  C       -6.521    -169.706      88.778
  N       -6.793    -168.409      89.058
  N       -5.300    -170.070      88.487
  C       -5.163    -171.404      88.300
  C       -6.138    -172.374      88.358
  C       -7.493    -171.953      88.647
  O       -8.468    -172.691      88.737
  N       -5.617    -173.622      88.121
  C       -4.332    -173.409      87.924
  N       -4.012    -172.075      87.997
  O        0.705    -175.925      88.920
  O        3.146    -175.138      88.918
  H       -2.499    -169.060      88.163
  H        0.915    -176.146      87.995
  H       -8.512    -170.245      89.039
  H       -3.600    -174.176      87.710
  H       -2.857    -170.807      86.848
  H       -2.211    -171.346      89.807
  H       -7.668    -168.129      89.474
  H        0.057    -170.927      89.385
  H       -5.993    -167.827      89.321
  H        0.200    -172.364      86.984
  H       -0.808    -173.318      89.722
  H       -0.529    -174.429      88.388
  P        1.257    -169.271      87.755
  C        2.739    -170.892      86.279
  O        2.129    -169.635      86.469
  O        1.934    -170.120      88.928
  O        1.265    -167.804      88.049
  H        2.117    -169.549      89.698
  H        3.266    -170.895      85.348
  H        1.988    -171.654      86.267
  H        3.425    -171.080      87.078

 6  7  8  9  10  11  12  13  14  15  26  29  33  34 0
 6-311+G(2d,p)
 ****
 36  38  39  40  41 0
 6-311+G(2d,p)
 ****
 1  2  3  4  5  16  17  18  19  20  21  22  23  24  25 0
 3-21G
 ****
 27  28  30  31  32  35  37  42  43  44  45  46  47 0
 3-21G
 ****
 48  49 0
 3-21G
 ****


