%nproc=1
%NoSave
%Mem=1900MB
#P OB98/GEN NMR

erre ene a

0 1
  C      430.455     -92.496     257.180
  O      429.655     -92.828     256.049
  P      429.408     -91.711     254.924
  C      427.085     -90.945     255.726
  O      428.450     -90.582     255.537
  C      426.488     -90.207     256.926
  O      426.786     -88.795     256.883
  C      424.972     -90.295     256.992
  O      424.556     -91.580     257.426
  C      424.648     -89.152     257.945
  O      424.813     -89.560     259.313
  C      425.718     -88.105     257.570
  N      425.198     -87.007     256.774
  C      424.471     -86.034     257.474
  O      424.270     -86.156     258.681
  N      423.977     -84.956     256.781
  C      424.180     -84.865     255.501
  N      423.674     -83.776     254.866
  C      424.929     -85.874     254.728
  C      425.397     -86.911     255.420
  O      429.012     -92.224     253.577
  O      430.826     -90.958     254.856
  H      424.314     -88.905     259.847
  H      430.961     -90.622     253.949
  H      425.079     -85.750     253.662
  H      425.957     -87.696     254.928
  H      426.164     -87.675     258.476
  H      423.615     -88.810     257.831
  H      424.548     -90.085     256.003
  H      426.928     -90.626     257.840
  H      423.150     -83.104     255.420
  H      427.013     -92.024     255.883
  H      423.819     -83.589     253.883
  H      426.531     -90.721     254.809
  P      424.123     -92.639     256.307
  C      421.725     -91.678     256.067
  O      422.953     -91.977     255.434
  O      423.360     -93.766     257.155
  O      425.253     -93.228     255.528
  H      423.510     -94.642     256.752
  H      421.175     -90.961     255.446
  H      421.885     -91.233     257.057
  H      421.135     -92.586     256.166
  H      430.522     -93.343     257.831
  H      430.009     -91.677     257.705
  H      431.436     -92.218     256.854

 3  4  5  6  7  8  9  10  11  12  13  23  27  28  29  30  32 0
 6-311+G(2d,p)
 ****
 34  35 0
 6-311+G(2d,p)
 ****
 1  2  14  15  16  17  18  19  20  21  22  24  25  26 0
 3-21G
 ****
 31  33  36  37  38  39  40  41  42  43  44  45  46 0
 3-21G
 ****


