%nproc=1
%NoSave
%Mem=1900MB
#P OB98/GEN NMR

erre ene a

0 1
  C      115.324     397.239    -222.602
  O      116.644     396.961    -222.180
  H      115.367     397.885    -223.484
  H      114.769     397.760    -221.817
  H      114.808     396.312    -222.871
  P      116.855     396.092    -220.852
  C      116.514     393.815    -222.034
  O      116.030     394.736    -221.060
  C      116.556     392.401    -221.459
  O      117.515     392.321    -220.387
  C      115.230     391.927    -220.870
  O      114.321     391.589    -221.896
  C      115.709     390.768    -220.012
  O      115.959     389.603    -220.812
  C      117.032     391.337    -219.442
  N      116.896     391.917    -218.110
  C      116.871     391.009    -217.044
  O      116.948     389.798    -217.255
  N      116.738     391.504    -215.771
  C      116.682     392.783    -215.568
  N      116.564     393.209    -214.285
  C      116.739     393.771    -216.662
  C      116.834     393.274    -217.895
  O      116.579     396.792    -219.555
  O      118.377     395.607    -220.948
  H      116.390     389.927    -221.628
  H      118.961     396.219    -220.462
  H      116.702     394.827    -216.450
  H      116.882     393.932    -218.756
  H      117.796     390.549    -219.391
  H      114.975     390.484    -219.255
  H      114.818     392.699    -220.208
  H      116.896     391.724    -222.256
  H      116.544     392.490    -213.566
  H      117.524     394.140    -222.307
  H      116.671     394.170    -214.000
  H      115.890     393.839    -222.934
  P      112.749     391.869    -221.745
  C      112.775     393.704    -223.545
  O      112.533     393.401    -222.180
  O      112.163     391.503    -220.425
  O      112.106     391.069    -222.975
  H      112.072     390.099    -222.774
  H      112.600     394.746    -223.716
  H      112.117     393.127    -224.161
  H      113.790     393.468    -223.788

 6  7  8  9  10  11  12  13  14  15  16  26  30  31  32  33  35 0
 6-311+G(2d,p)
 ****
 37  38 0
 6-311+G(2d,p)
 ****
 1  2  3  4  5  17  18  19  20  21  22  23  24  25 0
 3-21G
 ****
 27  28  29  34  36  39  40  41  42  43  44  45  46 0
 3-21G
 ****


