%nproc=1
%NoSave
%Mem=1900MB
#P OB98/GEN NMR

erre ene a

0 1
  C     1541.480    -252.121     238.360
  O     1540.612    -252.648     237.375
  P     1539.027    -252.846     237.654
  C     1537.761    -253.888     239.630
  O     1538.977    -253.883     238.894
  C     1538.039    -254.194     241.091
  O     1539.052    -253.264     241.558
  C     1536.885    -254.037     242.053
  O     1536.026    -255.156     242.155
  C     1537.614    -253.843     243.378
  O     1538.051    -255.122     243.881
  C     1538.801    -252.998     242.987
  N     1539.508    -249.068     246.181
  C     1539.877    -250.359     246.242
  N     1539.650    -251.354     245.361
  C     1538.966    -250.891     244.288
  C     1538.523    -249.587     244.095
  C     1538.837    -248.645     245.095
  N     1538.458    -247.326     245.007
  N     1537.865    -249.492     242.875
  C     1537.913    -250.697     242.373
  N     1538.583    -251.586     243.173
  O     1538.242    -253.219     236.454
  O     1538.575    -251.454     238.321
  H     1537.264    -255.682     243.923
  H     1537.593    -251.406     238.288
  H     1540.435    -250.655     247.124
  H     1537.495    -251.000     241.403
  H     1539.734    -253.290     243.500
  H     1536.982    -253.406     244.169
  H     1536.290    -253.117     241.853
  H     1538.478    -255.204     241.156
  H     1537.136    -254.683     239.225
  H     1538.818    -246.689     245.727
  H     1538.085    -246.984     244.137
  H     1537.240    -252.941     239.517
  P     1534.532    -254.924     242.715
  C     1533.654    -254.001     245.004
  O     1534.706    -254.587     244.267
  O     1533.560    -255.996     242.404
  O     1534.130    -253.507     242.077
  H     1534.662    -252.741     242.402
  H     1533.919    -254.033     246.076
  H     1532.748    -254.607     244.883
  H     1533.480    -252.994     244.708
  H     1542.476    -252.075     237.971
  H     1541.464    -252.752     239.224
  H     1541.157    -251.137     238.630

 3  4  5  6  7  8  9  10  11  12  22  25  29  30  31  32 0
 6-311+G(2d,p)
 ****
 33  36  37 0
 6-311+G(2d,p)
 ****
 1  2  13  14  15  16  17  18  19  20  21  23  24  26 0
 3-21G
 ****
 27  28  34  35  38  39  40  41  42  43  44  45  46  47  48 0
 3-21G
 ****


