%nproc=1
%NoSave
%Mem=1900MB
#P OB98/GEN NMR

erre ene a

0 1
  C      -65.776    -102.588    -122.407
  O      -64.633    -101.779    -122.593
  P      -63.155    -102.402    -122.604
  C      -62.726    -101.726    -120.160
  O      -62.839    -102.800    -121.081
  C      -61.570    -101.946    -119.184
  O      -61.762    -103.204    -118.477
  C      -60.180    -101.991    -119.840
  O      -59.272    -101.417    -118.893
  C      -59.933    -103.480    -119.979
  O      -58.557    -103.796    -120.152
  C      -60.576    -104.003    -118.687
  N      -60.879    -105.430    -118.764
  C      -60.042    -106.289    -118.048
  O      -59.056    -105.844    -117.453
  N      -60.307    -107.635    -118.063
  C      -61.260    -108.090    -118.816
  N      -61.478    -109.434    -118.787
  C      -62.084    -107.232    -119.685
  C      -61.852    -105.923    -119.600
  O      -62.115    -101.559    -123.261
  O      -63.353    -103.830    -123.300
  H      -58.176    -103.167    -120.803
  H      -63.443    -103.727    -124.280
  H      -62.828    -107.662    -120.338
  H      -62.408    -105.213    -120.199
  H      -59.913    -103.836    -117.830
  H      -60.477    -103.863    -120.854
  H      -60.129    -101.462    -120.793
  H      -61.604    -101.146    -118.433
  H      -60.899    -109.984    -118.165
  H      -63.658    -101.667    -119.589
  H      -62.245    -109.879    -119.271
  H      -62.605    -100.779    -120.700
  P      -57.939    -100.665    -119.365
  C      -56.470    -102.737    -119.047
  O      -56.961    -101.781    -119.970
  O      -57.320     -99.770    -118.343
  O      -58.392     -99.838    -120.664
  H      -57.719     -99.160    -120.867
  H      -56.059    -103.588    -119.601
  H      -57.266    -103.094    -118.389
  H      -55.675    -102.291    -118.445
  H      -66.654    -101.977    -122.434
  H      -65.713    -103.081    -121.460
  H      -65.826    -103.319    -123.187

 3  4  5  6  7  8  9  10  11  12  13  23  27  28  29  30  32 0
 6-311+G(2d,p)
 ****
 34  35 0
 6-311+G(2d,p)
 ****
 1  2  14  15  16  17  18  19  20  21  22  24  25  26 0
 3-21G
 ****
 31  33  36  37  38  39  40  41  42  43  44  45  46 0
 3-21G
 ****


