%nproc=1
%NoSave
%Mem=1900MB
#P OB98/GEN NMR

erre ene a

0 1
  C      -63.838    -171.184     195.178
  O      -63.978    -172.478     195.732
  H      -63.792    -171.272     194.088
  H      -62.915    -170.712     195.528
  H      -64.697    -170.561     195.442
  P      -63.989    -172.628     197.327
  C      -61.418    -172.355     197.254
  O      -62.520    -173.111     197.745
  C      -60.120    -172.798     197.927
  O      -58.989    -172.150     197.310
  C      -60.038    -172.457     199.409
  O      -60.845    -173.333     200.169
  C      -58.540    -172.580     199.642
  O      -58.152    -173.958     199.766
  C      -57.978    -171.973     198.332
  N      -57.611    -170.564     198.458
  C      -56.403    -170.301     199.111
  O      -55.723    -171.226     199.558
  N      -56.009    -168.992     199.258
  C      -56.728    -168.037     198.759
  N      -56.283    -166.763     198.934
  C      -57.992    -168.275     198.032
  C      -58.375    -169.545     197.930
  O      -65.099    -173.450     197.906
  O      -64.038    -171.117     197.855
  H      -58.579    -174.430     199.021
  H      -64.959    -170.842     198.024
  H      -58.557    -167.448     197.624
  H      -59.291    -169.806     197.408
  H      -57.092    -172.526     198.000
  H      -58.218    -172.076     200.552
  H      -60.325    -171.412     199.576
  H      -60.008    -173.881     197.766
  H      -55.400    -166.652     199.423
  H      -61.620    -171.303     197.485
  H      -56.670    -165.963     198.454
  H      -61.334    -172.458     196.165
  P      -61.797    -172.791     201.343
  C      -59.939    -172.843     203.124
  O      -61.186    -173.382     202.705
  O      -63.255    -173.043     201.147
  O      -61.424    -171.238     201.445
  H      -61.851    -170.731     200.707
  H      -59.636    -173.312     204.037
  H      -60.040    -171.789     203.281
  H      -59.202    -173.022     202.370

 6  7  8  9  10  11  12  13  14  15  16  26  30  31  32  33  35 0
 6-311+G(2d,p)
 ****
 37  38 0
 6-311+G(2d,p)
 ****
 1  2  3  4  5  17  18  19  20  21  22  23  24  25 0
 3-21G
 ****
 27  28  29  34  36  39  40  41  42  43  44  45  46 0
 3-21G
 ****


