%nproc=1
%NoSave
%Mem=1900MB
#P OB98/GEN NMR

erre ene a

0 1
  C     -185.977     389.621    -258.902
  O     -185.760     388.241    -258.685
  H     -186.729     389.743    -259.685
  H     -185.044     390.085    -259.236
  H     -186.330     390.111    -257.991
  P     -185.009     387.818    -257.333
  C     -185.504     388.372    -254.844
  O     -186.040     388.089    -256.128
  C     -186.615     388.821    -253.892
  O     -187.216     390.040    -254.424
  C     -187.737     387.788    -253.702
  O     -188.191     387.838    -252.344
  C     -188.841     388.330    -254.592
  O     -190.134     387.868    -254.199
  C     -188.643     389.832    -254.414
  N     -192.896     392.273    -255.493
  C     -192.422     391.780    -254.289
  N     -193.229     391.903    -253.214
  N     -191.251     391.210    -254.154
  C     -190.537     391.172    -255.304
  C     -190.893     391.620    -256.553
  C     -192.199     392.230    -256.697
  O     -192.683     392.667    -257.735
  N     -189.912     391.336    -257.475
  C     -188.974     390.705    -256.785
  N     -189.311     390.582    -255.464
  O     -183.916     388.977    -257.162
  O     -184.386     386.463    -257.345
  H     -190.795     388.304    -254.768
  H     -183.067     388.689    -257.547
  H     -193.812     392.685    -255.545
  H     -188.057     390.307    -257.194
  H     -189.038     390.197    -253.458
  H     -188.672     388.029    -255.635
  H     -194.130     392.355    -253.234
  H     -187.448     386.762    -253.962
  H     -192.881     391.584    -252.319
  H     -186.161     389.081    -252.930
  H     -184.763     389.173    -254.930
  H     -185.010     387.475    -254.458
  P     -187.764     386.647    -251.359
  C     -185.812     385.199    -252.294
  O     -186.204     386.350    -251.560
  O     -188.466     385.368    -252.020
  O     -188.201     386.844    -249.949
  H     -188.749     384.749    -251.323
  H     -184.744     385.149    -252.335
  H     -186.204     385.259    -253.288
  H     -186.192     384.322    -251.813

 6  7  8  9  10  11  12  13  14  15  26  29  33  34 0
 6-311+G(2d,p)
 ****
 36  38  39  40  41 0
 6-311+G(2d,p)
 ****
 1  2  3  4  5  16  17  18  19  20  21  22  23  24  25 0
 3-21G
 ****
 27  28  30  31  32  35  37  42  43  44  45  46  47 0
 3-21G
 ****
 48  49 0
 3-21G
 ****


