%nproc=1
%NoSave
%Mem=1900MB
#P OB98/GEN NMR

erre ene a

0 1
  C     -460.458    -577.363     477.896
  O     -460.077    -578.408     478.782
  P     -458.502    -578.659     479.009
  C     -458.854    -580.272     481.014
  O     -458.361    -580.103     479.684
  C     -458.758    -581.743     481.425
  O     -459.863    -582.507     480.877
  C     -457.500    -582.457     480.928
  O     -456.370    -582.181     481.766
  C     -457.917    -583.914     481.052
  O     -457.787    -584.340     482.420
  C     -459.406    -583.860     480.648
  N     -458.808    -587.519     477.194
  C     -458.669    -587.568     478.561
  N     -458.243    -588.744     479.095
  N     -458.902    -586.557     479.364
  C     -459.313    -585.436     478.699
  C     -459.495    -585.276     477.341
  C     -459.202    -586.395     476.484
  O     -459.272    -586.404     475.252
  N     -459.930    -584.008     477.042
  C     -460.002    -583.408     478.224
  N     -459.592    -584.232     479.241
  O     -458.128    -577.649     480.197
  O     -457.649    -578.437     477.788
  H     -458.373    -583.762     482.956
  H     -457.150    -577.517     480.228
  H     -458.596    -588.326     476.629
  H     -460.332    -582.381     478.376
  H     -460.013    -584.521     481.259
  H     -457.301    -584.571     480.447
  H     -457.977    -589.543     478.537
  H     -457.287    -582.227     479.881
  H     -458.065    -588.789     480.090
  H     -458.828    -581.798     482.529
  H     -459.899    -579.947     481.061
  H     -458.267    -579.648     481.697
  P     -454.940    -582.683     481.219
  C     -453.761    -581.259     483.045
  O     -453.941    -582.524     482.490
  O     -454.495    -581.513     480.235
  O     -454.962    -584.023     480.557
  H     -453.876    -581.848     479.549
  H     -453.276    -581.369     484.030
  H     -454.715    -580.727     483.186
  H     -453.105    -580.648     482.411
  H     -461.525    -577.312     477.843
  H     -460.061    -577.559     476.922
  H     -460.074    -576.432     478.257

 3  4  5  6  7  8  9  10  11  12  23  26  30  31 0
 6-311+G(2d,p)
 ****
 33  35  36  37  38 0
 6-311+G(2d,p)
 ****
 1  2  13  14  15  16  17  18  19  20  21  22  24  25 0
 3-21G
 ****
 27  28  29  32  34  39  40  41  42  43  44  45  46  47  48  49 0
 3-21G
 ****


