%nproc=1
%NoSave
%Mem=1900MB
#P OB98/GEN NMR

erre ene a

0 1
  C       83.012     -48.908    -627.372
  O       83.193     -50.018    -628.229
  H       83.415     -49.131    -626.379
  H       83.545     -48.051    -627.788
  H       81.950     -48.655    -627.298
  P       82.488     -51.389    -627.772
  C       84.559     -52.576    -626.770
  O       83.316     -51.936    -626.509
  C       84.790     -53.711    -625.781
  O       85.816     -54.584    -626.324
  C       85.251     -53.240    -624.382
  O       84.450     -53.848    -623.360
  C       86.671     -53.769    -624.267
  O       87.008     -54.160    -622.935
  C       86.669     -54.957    -625.225
  N       90.944     -57.495    -624.088
  C       89.674     -57.645    -623.648
  N       88.559     -57.002    -624.065
  C       88.850     -56.148    -625.066
  C       90.092     -55.902    -625.631
  C       91.180     -56.608    -625.095
  N       92.475     -56.418    -625.499
  N       89.994     -54.948    -626.634
  C       88.728     -54.595    -626.636
  N       88.003     -55.278    -625.692
  O       82.869     -52.403    -628.953
  O       81.011     -51.292    -627.586
  H       87.808     -54.722    -622.998
  H       82.045     -52.715    -629.374
  H       89.536     -58.375    -622.858
  H       88.295     -53.813    -627.254
  H       86.239     -55.855    -624.759
  H       87.372     -52.997    -624.597
  H       85.224     -52.149    -624.274
  H       83.868     -54.302    -625.696
  H       85.375     -51.839    -626.673
  H       93.209     -56.875    -624.982
  H       92.671     -55.686    -626.170
  H       84.555     -52.957    -627.801
  P       83.389     -52.875    -622.633
  C       85.062     -51.313    -621.384
  O       84.095     -51.442    -622.422
  O       83.300     -53.481    -621.147
  O       82.049     -52.842    -623.281
  H       82.375     -53.707    -620.931
  H       85.438     -50.311    -621.369
  H       85.868     -51.994    -621.561
  H       84.606     -51.537    -620.442

 6  7  8  9  10  11  12  13  14  15  25  28  32  33  34  35 0
 6-311+G(2d,p)
 ****
 36  39  40 0
 6-311+G(2d,p)
 ****
 1  2  3  4  5  16  17  18  19  20  21  22  23  24 0
 3-21G
 ****
 26  27  29  30  31  37  38  41  42  43  44  45  46  47  48 0
 3-21G
 ****


