%nproc=1
%NoSave
%Mem=1900MB
#P OB98/GEN NMR

erre ene a

0 1
  C     -898.870    1174.711     528.474
  O     -897.980    1173.717     527.986
  P     -898.490    1172.810     526.764
  C     -897.800    1170.724     528.156
  O     -897.770    1171.380     526.909
  C     -897.340    1169.287     528.016
  O     -898.220    1168.560     527.180
  C     -895.950    1169.130     527.386
  O     -894.910    1169.472     528.282
  C     -895.990    1167.661     526.964
  O     -895.730    1166.830     528.112
  C     -897.470    1167.509     526.511
  N     -898.860    1165.085     522.218
  C     -898.790    1164.675     523.500
  N     -898.390    1165.368     524.608
  C     -898.070    1166.603     524.257
  C     -898.060    1167.182     522.985
  C     -898.480    1166.366     521.940
  N     -898.590    1166.783     520.636
  N     -897.630    1168.489     523.047
  C     -897.370    1168.715     524.303
  N     -897.620    1167.629     525.076
  O     -897.760    1173.477     525.501
  O     -900.000    1172.747     526.591
  H     -895.880    1165.891     527.834
  H     -898.330    1173.418     524.697
  H     -899.100    1163.626     523.694
  H     -897.010    1169.655     524.701
  H     -897.870    1166.547     526.826
  H     -895.240    1167.415     526.193
  H     -895.870    1169.767     526.478
  H     -897.320    1168.818     529.029
  H     -898.830    1170.728     528.565
  H     -898.760    1166.092     519.918
  H     -898.200    1167.693     520.401
  H     -897.180    1171.293     528.877
  P     -893.760    1170.440     527.759
  C     -891.930    1169.035     528.899
  O     -892.600    1170.284     528.847
  O     -894.360    1171.900     528.059
  O     -893.330    1170.182     526.338
  H     -894.700    1171.939     528.992
  H     -891.140    1169.077     529.660
  H     -891.470    1168.816     527.931
  H     -892.620    1168.244     529.191
  H     -898.407    1175.238     529.282
  H     -899.769    1174.246     528.820
  H     -899.104    1175.398     527.687

 3  4  5  6  7  8  9  10  11  12  22  25  29  30  31  32 0
 6-311+G(2d,p)
 ****
 33  36  37 0
 6-311+G(2d,p)
 ****
 1  2  13  14  15  16  17  18  19  20  21  23  24  26 0
 3-21G
 ****
 27  28  34  35  38  39  40  41  42  43  44  45  46  47  48 0
 3-21G
 ****


