%nproc=1
%NoSave
%Mem=1900MB
#P OB98/GEN NMR

erre ene a

0 1
  C      399.401      50.164    -314.335
  O      398.658      49.031    -314.740
  H      399.286      50.288    -313.255
  H      399.027      51.064    -314.829
  H      400.463      50.030    -314.562
  P      398.663      48.641    -316.293
  C      400.154      46.548    -316.008
  O      398.865      47.048    -316.345
  C      400.082      45.050    -315.754
  O      399.169      44.762    -314.682
  C      399.603      44.239    -316.961
  O      400.665      44.027    -317.870
  C      399.139      42.965    -316.269
  O      400.278      42.162    -315.915
  C      398.470      43.526    -315.004
  N      393.778      42.182    -313.635
  C      394.992      41.600    -313.332
  N      394.943      40.468    -312.589
  N      396.145      42.066    -313.734
  C      396.030      43.159    -314.524
  C      394.890      43.815    -314.909
  C      393.619      43.323    -314.407
  O      392.524      43.816    -314.640
  N      395.166      44.846    -315.768
  C      396.479      44.837    -315.869
  N      397.050      43.820    -315.145
  O      399.614      49.399    -317.167
  O      397.142      48.833    -316.747
  H      399.933      41.346    -315.510
  H      396.993      49.729    -317.105
  H      392.920      41.764    -313.310
  H      397.062      45.539    -316.458
  H      398.576      42.852    -314.144
  H      398.489      42.353    -316.891
  H      394.093      39.926    -312.500
  H      398.736      44.706    -317.446
  H      395.819      40.000    -312.394
  H      401.075      44.713    -315.429
  H      400.488      47.076    -315.106
  H      400.865      46.752    -316.816
  P      400.470      43.114    -319.179
  C      400.678      44.810    -321.118
  O      401.338      43.828    -320.318
  O      399.049      42.850    -319.552
  O      401.311      41.791    -318.877
  H      400.797      41.094    -318.404
  H      401.366      45.206    -321.835
  H      400.322      45.600    -320.491
  H      399.852      44.359    -321.627

 6  7  8  9  10  11  12  13  14  15  26  29  33  34 0
 6-311+G(2d,p)
 ****
 36  38  39  40  41 0
 6-311+G(2d,p)
 ****
 1  2  3  4  5  16  17  18  19  20  21  22  23  24  25 0
 3-21G
 ****
 27  28  30  31  32  35  37  42  43  44  45  46  47 0
 3-21G
 ****
 48  49 0
 3-21G
 ****


