%nproc=1
%NoSave
%Mem=1900MB
#P OB98/GEN NMR

erre ene a

0 1
  C     -515.275    -339.946     975.068
  O     -514.727    -341.256     975.073
  P     -515.233    -342.462     975.991
  C     -513.205    -343.973     976.742
  O     -514.241    -343.694     975.799
  C     -512.351    -345.171     976.286
  O     -513.196    -346.353     976.235
  C     -511.751    -344.985     974.884
  O     -510.404    -345.414     974.776
  C     -512.774    -345.663     973.986
  O     -512.266    -346.017     972.713
  C     -513.249    -346.820     974.867
  N     -516.088    -350.470     972.701
  C     -514.708    -350.310     972.689
  N     -513.997    -351.225     971.998
  N     -514.091    -349.324     973.292
  C     -514.935    -348.428     973.864
  C     -516.307    -348.475     973.927
  C     -516.979    -349.593     973.301
  O     -518.182    -349.803     973.288
  N     -516.804    -347.387     974.612
  C     -515.753    -346.695     974.937
  N     -514.581    -347.294     974.524
  O     -516.688    -342.758     975.943
  O     -514.885    -341.967     977.493
  H     -511.565    -346.670     972.835
  H     -515.573    -342.351     978.078
  H     -516.508    -351.253     972.234
  H     -515.768    -345.771     975.500
  H     -512.589    -347.687     974.779
  H     -513.596    -344.950     973.826
  H     -514.411    -351.934     971.423
  H     -511.696    -343.921     974.629
  H     -513.023    -350.977     971.820
  H     -511.566    -345.345     977.040
  H     -513.703    -344.204     977.686
  H     -512.593    -343.076     976.899
  P     -509.064    -344.581     975.032
  C     -508.758    -344.116     972.528
  O     -508.163    -344.650     973.708
  O     -508.225    -345.463     976.074
  O     -509.278    -343.198     975.560
  H     -508.090    -344.943     976.899
  H     -508.153    -344.454     971.664
  H     -508.716    -343.022     972.557
  H     -509.772    -344.456     972.416
  H     -514.747    -339.341     974.360
  H     -515.182    -339.517     976.044
  H     -516.309    -339.993     974.796

 3  4  5  6  7  8  9  10  11  12  23  26  30  31 0
 6-311+G(2d,p)
 ****
 33  35  36  37  38 0
 6-311+G(2d,p)
 ****
 1  2  13  14  15  16  17  18  19  20  21  22  24  25 0
 3-21G
 ****
 27  28  29  32  34  39  40  41  42  43  44  45  46  47  48  49 0
 3-21G
 ****


