%nproc=1
%NoSave
%Mem=1900MB
#P OB98/GEN NMR

erre ene a

0 1
  C     -793.458      16.945     -68.470
  O     -794.330      16.932     -67.351
  P     -794.720      18.331     -66.673
  C     -792.745      18.600     -64.916
  O     -793.409      19.038     -66.089
  C     -791.633      19.605     -64.566
  O     -790.813      19.858     -65.719
  C     -792.169      20.954     -64.081
  O     -792.430      20.957     -62.686
  C     -791.045      21.896     -64.486
  O     -789.956      21.805     -63.558
  C     -790.646      21.298     -65.864
  N     -791.394      21.746     -67.064
  C     -790.702      22.227     -68.170
  O     -789.470      22.324     -68.234
  N     -791.468      22.608     -69.244
  C     -792.811      22.398     -69.390
  O     -793.442      22.708     -70.398
  C     -793.473      21.749     -68.259
  C     -792.751      21.465     -67.159
  O     -795.532      17.907     -65.365
  O     -795.509      19.244     -67.556
  H     -789.549      20.927     -63.668
  H     -796.465      18.207     -65.423
  H     -790.994      23.025     -70.026
  H     -794.534      21.527     -68.341
  H     -793.230      20.991     -66.314
  H     -789.584      21.489     -66.068
  H     -791.377      22.930     -64.468
  H     -793.067      21.228     -64.655
  H     -790.996      19.155     -63.780
  H     -792.325      17.603     -65.055
  H     -793.460      18.528     -64.090
  P     -793.873      20.507     -62.143
  C     -795.002      22.675     -62.930
  O     -794.937      21.269     -63.067
  O     -794.084      20.632     -60.672
  O     -794.003      18.991     -62.647
  H     -793.735      18.357     -61.928
  H     -795.646      23.076     -63.717
  H     -793.999      23.116     -63.015
  H     -795.430      22.928     -61.959
  H     -793.295      15.943     -68.807
  H     -792.523      17.384     -68.189
  H     -793.898      17.519     -69.259

 3  4  5  6  7  8  9  10  11  12  13  23  28  29  30  31  32 0
 6-311+G(2d,p)
 ****
 33  34 0
 6-311+G(2d,p)
 ****
 1  2  14  15  16  17  18  19  20  21  22  24  25  26  27 0
 3-21G
 ****
 35  36  37  38  39  40  41  42  43  44  45 0
 3-21G
 ****


