%nproc=1
%NoSave
%Mem=1900MB
#P OB98/GEN NMR

erre ene a

0 1
  C      -73.438     -85.197      -8.747
  O      -74.134     -85.964      -9.716
  P      -73.340     -86.940     -10.710
  C      -73.349     -85.355     -12.733
  O      -73.833     -86.580     -12.194
  C      -72.681     -85.589     -14.087
  O      -72.146     -84.333     -14.566
  C      -71.530     -86.586     -14.030
  O      -71.518     -87.348     -15.240
  C      -70.283     -85.719     -14.002
  O      -69.147     -86.422     -14.534
  C      -70.739     -84.508     -14.821
  N      -68.277     -80.345     -16.541
  C      -68.893     -81.356     -17.191
  N      -69.504     -82.443     -16.672
  C      -69.488     -82.396     -15.331
  C      -68.902     -81.428     -14.529
  C      -68.269     -80.362     -15.188
  N      -67.651     -79.325     -14.523
  N      -69.063     -81.738     -13.192
  C      -69.750     -82.859     -13.190
  N      -70.041     -83.291     -14.457
  O      -73.415     -88.387     -10.366
  O      -71.837     -86.400     -10.687
  H      -68.375     -85.826     -14.449
  H      -71.207     -87.146     -10.718
  H      -68.892     -81.285     -18.276
  H      -70.052     -83.401     -12.307
  H      -70.607     -84.676     -15.897
  H      -70.052     -85.442     -12.967
  H      -71.588     -87.257     -13.166
  H      -73.445     -85.916     -14.803
  H      -72.615     -84.938     -12.038
  H      -67.332     -78.545     -15.075
  H      -67.796     -79.247     -13.525
  H      -74.178     -84.646     -12.829
  P      -71.434     -88.948     -15.063
  C      -69.036     -88.949     -16.074
  O      -70.361     -89.422     -16.152
  O      -72.783     -89.588     -15.108
  O      -70.684     -89.065     -13.652
  H      -70.143     -88.266     -13.465
  H      -68.470     -89.349     -16.919
  H      -68.566     -89.293     -15.149
  H      -69.015     -87.856     -16.119
  H      -74.137     -84.614      -8.185
  H      -72.744     -84.547      -9.238
  H      -72.908     -85.852      -8.087

 3  4  5  6  7  8  9  10  11  12  22  25  29  30  31  32 0
 6-311+G(2d,p)
 ****
 33  36  37 0
 6-311+G(2d,p)
 ****
 1  2  13  14  15  16  17  18  19  20  21  23  24  26 0
 3-21G
 ****
 27  28  34  35  38  39  40  41  42  43  44  45  46  47  48 0
 3-21G
 ****


