%nproc=1
%NoSave
%Mem=1900MB
#P OB98/GEN NMR

erre ene a

0 1
  C       59.245     -45.790      50.168
  O       60.222     -45.758      49.140
  P       60.945     -47.105      48.656
  C       62.880     -46.799      50.320
  O       61.806     -47.634      49.903
  C       63.616     -47.419      51.507
  O       62.678     -47.598      52.595
  C       64.224     -48.783      51.198
  O       65.463     -48.908      51.901
  C       63.239     -49.777      51.788
  O       63.886     -51.016      52.124
  C       62.691     -48.987      52.980
  N       59.778     -51.539      56.353
  C       61.108     -51.306      56.310
  N       61.819     -50.643      55.371
  C       61.003     -50.146      54.428
  C       59.627     -50.296      54.340
  C       59.006     -51.035      55.362
  N       57.646     -51.261      55.410
  N       59.137     -49.669      53.209
  C       60.195     -49.135      52.641
  N       61.345     -49.385      53.344
  O       61.706     -46.988      47.381
  O       59.765     -48.178      48.550
  H       63.210     -51.589      52.542
  H       59.906     -48.761      47.778
  H       61.682     -51.712      57.141
  H       60.187     -48.570      51.721
  H       63.334     -49.090      53.863
  H       62.453     -49.996      51.055
  H       64.385     -48.945      50.126
  H       64.387     -46.718      51.848
  H       62.467     -45.831      50.620
  H       57.278     -51.694      56.241
  H       57.056     -50.743      54.772
  H       63.565     -46.638      49.481
  P       66.754     -49.252      51.000
  C       66.675     -51.822      51.409
  O       66.512     -50.755      50.503
  O       68.031     -48.967      51.720
  O       66.488     -48.334      49.715
  H       65.531     -48.141      49.601
  H       66.506     -52.763      50.877
  H       65.944     -51.747      52.217
  H       67.689     -51.825      51.820
  H       58.883     -44.799      50.347
  H       59.683     -46.177      51.064
  H       58.432     -46.418      49.868

 3  4  5  6  7  8  9  10  11  12  22  25  29  30  31  32 0
 6-311+G(2d,p)
 ****
 33  36  37 0
 6-311+G(2d,p)
 ****
 1  2  13  14  15  16  17  18  19  20  21  23  24  26 0
 3-21G
 ****
 27  28  34  35  38  39  40  41  42  43  44  45  46  47  48 0
 3-21G
 ****


