%nproc=1
%NoSave
%Mem=1900MB
#P OB98/GEN NMR

erre ene a

0 1
  C      -43.895     -82.235       4.578
  O      -42.850     -81.683       5.397
  P      -43.192     -81.234       6.901
  C      -40.885     -81.998       7.850
  O      -41.843     -80.959       7.725
  C      -39.604     -81.496       8.533
  O      -38.889     -80.583       7.649
  C      -39.839     -80.749       9.853
  O      -38.712     -81.021      10.698
  C      -39.824     -79.295       9.415
  O      -39.577     -78.391      10.481
  C      -38.711     -79.341       8.362
  N      -38.710     -78.206       7.439
  C      -37.483     -77.751       6.967
  O      -36.394     -78.198       7.319
  N      -37.538     -76.713       6.071
  C      -38.666     -76.075       5.645
  O      -38.646     -75.131       4.864
  C      -39.930     -76.579       6.198
  C      -39.893     -77.603       7.055
  O      -43.710     -82.606       7.548
  O      -44.239     -80.176       7.032
  H      -40.099     -78.693      11.246
  H      -44.526     -82.443       8.057
  H      -36.660     -76.380       5.707
  H      -40.848     -76.104       5.882
  H      -40.816     -78.000       7.466
  H      -37.738     -79.402       8.862
  H      -40.794     -79.038       8.976
  H      -40.767     -81.041      10.353
  H      -38.944     -82.357       8.693
  H      -40.631     -82.376       6.855
  H      -41.322     -82.819       8.428
  P      -38.935     -81.941      11.998
  C      -36.572     -83.038      11.766
  O      -37.486     -82.320      12.563
  O      -39.426     -83.302      11.303
  O      -39.917     -81.395      12.982
  H      -38.884     -83.548      10.535
  H      -36.584     -82.689      10.730
  H      -36.817     -84.102      11.793
  H      -35.566     -82.898      12.171
  H      -43.501     -82.479       3.614
  H      -44.681     -81.517       4.471
  H      -44.281     -83.120       5.040

 3  4  5  6  7  8  9  10  11  12  13  23  28  29  30  31  32 0
 6-311+G(2d,p)
 ****
 33  34 0
 6-311+G(2d,p)
 ****
 1  2  14  15  16  17  18  19  20  21  22  24  25  26 0
 3-21G
 ****
 27  35  36  37  38  39  40  41  42  43  44  45 0
 3-21G
 ****


