%nproc=1
%NoSave
%Mem=1900MB
#P OB98/GEN NMR

erre ene a

0 1
  C       30.406      -1.146     -84.610
  O       31.395      -0.139     -84.545
  P       32.262       0.084     -83.220
  C       30.389       1.480     -82.166
  O       31.254       0.364     -82.006
  C       29.828       1.947     -80.824
  O       28.745       1.067     -80.423
  C       30.859       1.973     -79.687
  O       30.575       3.122     -78.882
  C       30.557       0.698     -78.923
  O       31.025       0.746     -77.582
  C       29.034       0.624     -79.082
  N       28.514      -0.712     -78.840
  C       28.372      -1.104     -77.508
  O       28.803      -0.387     -76.603
  N       27.762      -2.304     -77.239
  C       27.494      -3.117     -78.213
  N       26.828      -4.264     -77.911
  C       27.863      -2.837     -79.616
  C       28.322      -1.613     -79.862
  O       33.368       1.080     -83.348
  O       32.841      -1.370     -82.879
  H       33.811      -1.312     -82.779
  H       31.986       0.942     -77.589
  H       27.735      -3.595     -80.373
  H       28.594      -1.301     -80.864
  H       28.541       1.325     -78.396
  H       31.036      -0.153     -79.421
  H       31.889       2.030     -80.051
  H       29.399       2.947     -80.963
  H       26.557      -4.403     -76.945
  H       29.562       1.180     -82.812
  H       26.307      -4.789     -78.613
  H       30.923       2.296     -82.666
  P       31.771       3.767     -78.026
  C       31.018       2.590     -75.840
  O       32.054       2.808     -76.775
  O       31.033       5.014     -77.331
  O       32.959       4.247     -78.795
  H       31.697       5.696     -77.117
  H       31.406       1.971     -75.027
  H       30.186       2.061     -76.312
  H       30.669       3.538     -75.423
  H       29.944      -1.130     -85.575
  H       29.666      -0.969     -83.857
  H       30.859      -2.102     -84.447

 3  4  5  6  7  8  9  10  11  12  13  24  27  28  29  30  32 0
 6-311+G(2d,p)
 ****
 34  35 0
 6-311+G(2d,p)
 ****
 1  2  14  15  16  17  18  19  20  21  22  23  25  26 0
 3-21G
 ****
 31  33  36  37  38  39  40  41  42  43  44  45  46 0
 3-21G
 ****


