%nproc=1
%NoSave
%Mem=1900MB
#P OB98/GEN NMR

erre ene a

0 1
  C       90.337      96.062      31.562
  O       90.036      95.431      30.334
  H       91.064      95.450      32.102
  H       89.430      96.144      32.165
  H       90.766      97.054      31.395
  P       89.251      96.308      29.242
  C       87.161      94.770      29.280
  O       87.685      96.069      29.507
  C       85.952      94.841      28.353
  O       85.655      93.537      27.811
  C       84.673      95.329      29.024
  O       84.620      96.747      29.084
  C       83.627      94.784      28.066
  O       83.568      95.616      26.887
  C       84.209      93.410      27.707
  N       80.705      89.813      28.414
  C       80.788      90.790      27.441
  N       79.790      90.817      26.532
  N       81.756      91.665      27.367
  C       82.671      91.534      28.356
  C       82.695      90.613      29.379
  C       81.627      89.642      29.439
  O       81.514      88.748      30.275
  N       83.782      90.790      30.193
  C       84.403      91.832      29.677
  N       83.768      92.322      28.563
  O       89.533      95.510      27.881
  O       89.685      97.730      29.138
  H       84.486      95.763      26.596
  H       90.223      95.982      27.377
  H       79.932      89.171      28.432
  H       85.315      92.263      30.064
  H       83.978      93.117      26.677
  H       82.624      94.775      28.497
  H       79.003      90.187      26.544
  H       84.536      94.876      30.014
  H       79.832      91.523      25.808
  H       86.217      95.492      27.508
  H       86.860      94.335      30.239
  H       87.940      94.145      28.831
  P       84.148      97.433      30.454
  C       81.615      97.071      30.039
  O       82.741      96.768      30.850
  O       83.746      98.910      29.987
  O       85.172      97.464      31.536
  H       84.381      99.558      30.351
  H       80.754      96.562      30.419
  H       81.803      96.753      29.035
  H       81.440      98.126      30.052

 6  7  8  9  10  11  12  13  14  15  26  29  33  34 0
 6-311+G(2d,p)
 ****
 36  38  39  40  41 0
 6-311+G(2d,p)
 ****
 1  2  3  4  5  16  17  18  19  20  21  22  23  24  25 0
 3-21G
 ****
 27  28  30  31  32  35  37  42  43  44  45  46  47 0
 3-21G
 ****
 48  49 0
 3-21G
 ****


