%nproc=1
%NoSave
%Mem=1900MB
#P OB98/GEN NMR

erre ene a

0 1
  C     -124.753    1051.862    -120.355
  O     -126.162    1051.783    -120.341
  H     -124.420    1052.349    -119.433
  H     -124.416    1052.453    -121.201
  H     -124.309    1050.859    -120.399
  P     -126.908    1050.981    -121.508
  C     -127.478    1049.112    -119.819
  O     -126.926    1049.429    -121.082
  C     -128.115    1047.710    -119.841
  O     -129.061    1047.659    -120.933
  C     -127.092    1046.581    -120.043
  O     -127.492    1045.466    -119.250
  C     -127.216    1046.251    -121.513
  O     -126.849    1044.914    -121.802
  C     -128.693    1046.541    -121.777
  N     -129.481    1044.560    -126.362
  C     -129.354    1043.943    -125.128
  N     -129.424    1042.585    -125.119
  N     -129.166    1044.585    -124.004
  C     -129.136    1045.925    -124.168
  C     -129.244    1046.651    -125.323
  C     -129.430    1045.933    -126.564
  O     -129.533    1046.427    -127.687
  N     -129.143    1048.008    -125.070
  C     -128.964    1048.083    -123.767
  N     -128.947    1046.861    -123.179
  O     -126.402    1051.246    -122.885
  O     -128.443    1051.406    -121.362
  H     -125.944    1044.769    -121.460
  H     -128.706    1052.031    -122.065
  H     -129.615    1044.015    -127.190
  H     -128.850    1049.006    -123.211
  H     -129.347    1045.698    -121.527
  H     -126.590    1046.917    -122.106
  H     -129.599    1042.027    -125.948
  H     -126.079    1046.883    -119.763
  H     -129.372    1042.116    -124.235
  H     -128.681    1047.568    -118.906
  H     -128.235    1049.860    -119.586
  H     -126.695    1049.157    -119.057
  P     -126.790    1045.225    -117.817
  C     -129.057    1045.702    -116.695
  O     -127.662    1045.971    -116.691
  O     -125.326    1045.493    -117.784
  O     -127.100    1043.672    -117.527
  H     -126.345    1043.290    -117.058
  H     -129.528    1046.251    -115.907
  H     -129.219    1044.655    -116.547
  H     -129.475    1045.998    -117.635

 6  7  8  9  10  11  12  13  14  15  26  29  33  34 0
 6-311+G(2d,p)
 ****
 36  38  39  40  41 0
 6-311+G(2d,p)
 ****
 1  2  3  4  5  16  17  18  19  20  21  22  23  24  25 0
 3-21G
 ****
 27  28  30  31  32  35  37  42  43  44  45  46  47 0
 3-21G
 ****
 48  49 0
 3-21G
 ****


