%nproc=1
%NoSave
%Mem=1900MB
#P OB98/GEN NMR

erre ene a

0 1
  C     -204.646    -125.932    -104.094
  O     -205.476    -125.210    -104.982
  H     -204.179    -125.225    -103.402
  H     -203.856    -126.447    -104.647
  H     -205.233    -126.651    -103.518
  P     -206.279    -126.019    -106.110
  C     -205.295    -124.934    -108.248
  O     -205.272    -126.044    -107.366
  C     -205.644    -125.391    -109.664
  O     -204.695    -126.370    -110.149
  C     -207.002    -126.072    -109.802
  O     -208.099    -125.180    -109.727
  C     -206.845    -126.683    -111.185
  O     -206.990    -125.659    -112.184
  C     -205.392    -127.206    -111.113
  N     -205.317    -128.615    -110.725
  C     -205.013    -129.528    -111.739
  O     -204.828    -129.149    -112.893
  N     -204.955    -130.868    -111.428
  C     -205.200    -131.258    -110.217
  N     -205.130    -132.596    -109.965
  C     -205.547    -130.327    -109.121
  C     -205.583    -129.039    -109.440
  O     -207.662    -125.537    -106.406
  O     -206.226    -127.544    -105.625
  H     -206.494    -124.882    -111.868
  H     -206.718    -128.089    -106.285
  H     -205.776    -130.712    -108.135
  H     -205.837    -128.295    -108.692
  H     -204.883    -127.077    -112.080
  H     -207.591    -127.452    -111.400
  H     -207.106    -126.887    -109.072
  H     -205.565    -124.513    -110.321
  H     -204.898    -133.206    -110.734
  H     -204.311    -124.455    -108.221
  H     -205.390    -132.996    -109.070
  H     -206.052    -124.213    -107.921
  P     -209.566    -125.839    -109.618
  C     -210.761    -125.034    -111.801
  O     -210.064    -126.068    -111.126
  O     -210.465    -124.626    -109.090
  O     -209.655    -127.053    -108.744
  H     -210.600    -124.694    -108.122
  H     -211.014    -125.360    -112.788
  H     -210.140    -124.165    -111.860
  H     -211.655    -124.797    -111.264

 6  7  8  9  10  11  12  13  14  15  16  26  30  31  32  33  35 0
 6-311+G(2d,p)
 ****
 37  38 0
 6-311+G(2d,p)
 ****
 1  2  3  4  5  17  18  19  20  21  22  23  24  25 0
 3-21G
 ****
 27  28  29  34  36  39  40  41  42  43  44  45  46 0
 3-21G
 ****


