%nproc=1
%NoSave
%Mem=1900MB
#P OB98/GEN NMR

erre ene a

0 1
  C      279.143     492.242    -359.394
  O      279.246     491.213    -360.360
  H      278.951     491.809    -358.407
  H      280.090     492.788    -359.357
  H      278.340     492.932    -359.660
  P      277.970     490.260    -360.544
  C      277.933     489.729    -363.081
  O      278.289     489.279    -361.778
  C      278.837     489.073    -364.121
  O      280.186     489.573    -363.937
  C      278.885     487.533    -364.050
  O      278.484     486.970    -365.308
  C      280.348     487.212    -363.827
  O      280.798     486.082    -364.575
  C      281.070     488.492    -364.254
  N      285.817     486.665    -363.925
  C      284.901     486.604    -364.916
  N      283.694     487.206    -364.985
  C      283.468     487.956    -363.886
  C      284.316     488.125    -362.806
  C      285.530     487.423    -362.838
  N      286.438     487.437    -361.799
  N      283.733     488.956    -361.866
  C      282.543     489.243    -362.351
  N      282.331     488.638    -363.570
  O      276.851     491.248    -361.126
  O      277.504     489.580    -359.302
  H      280.569     486.247    -365.504
  H      276.021     491.137    -360.633
  H      285.168     485.987    -365.773
  H      281.780     489.828    -361.852
  H      281.260     488.511    -365.337
  H      280.510     487.005    -362.761
  H      278.267     487.126    -363.247
  H      278.509     489.401    -365.119
  H      278.050     490.814    -363.135
  H      287.224     486.817    -361.863
  H      286.179     487.915    -360.947
  H      276.878     489.486    -363.269
  P      277.017     486.305    -365.363
  C      276.114     487.471    -367.512
  O      276.565     486.267    -366.899
  O      276.079     487.451    -364.740
  O      276.905     485.018    -364.613
  H      275.287     487.055    -364.328
  H      275.852     487.276    -368.531
  H      276.894     488.202    -367.478
  H      275.257     487.839    -366.987

 6  7  8  9  10  11  12  13  14  15  25  28  32  33  34  35 0
 6-311+G(2d,p)
 ****
 36  39  40 0
 6-311+G(2d,p)
 ****
 1  2  3  4  5  16  17  18  19  20  21  22  23  24 0
 3-21G
 ****
 26  27  29  30  31  37  38  41  42  43  44  45  46  47  48 0
 3-21G
 ****


