%nproc=1
%NoSave
%Mem=1900MB
#P OB98/GEN NMR

erre ene a

0 1
  C      411.594      74.891     -61.920
  O      411.269      76.115     -62.553
  H      411.029      74.821     -60.986
  H      412.660      74.850     -61.687
  H      411.319      74.049     -62.557
  P      411.980      76.457     -63.948
  C      410.287      75.201     -65.443
  O      411.614      75.242     -64.932
  C      410.315      75.054     -66.959
  O      410.910      73.794     -67.330
  C      408.931      75.092     -67.611
  O      408.489      76.433     -67.759
  C      409.237      74.414     -68.935
  O      409.908      75.336     -69.813
  C      410.196      73.293     -68.498
  N      408.285      68.940     -70.255
  C      408.812      70.018     -70.942
  N      408.789      69.939     -72.290
  N      409.303      71.082     -70.358
  C      409.193      71.048     -69.010
  C      408.679      70.049     -68.221
  C      408.193      68.851     -68.875
  O      407.731      67.862     -68.306
  N      408.678      70.398     -66.894
  C      409.233      71.592     -66.879
  N      409.551      72.040     -68.142
  O      413.444      76.768     -63.891
  O      411.125      77.675     -64.533
  H      410.280      74.804     -70.542
  H      411.514      78.532     -64.272
  H      407.908      68.159     -70.767
  H      409.427      72.177     -65.986
  H      410.943      73.064     -69.266
  H      408.342      74.065     -69.452
  H      408.181      69.292     -72.777
  H      408.210      74.480     -67.064
  H      409.125      70.741     -72.811
  H      410.961      75.846     -67.361
  H      409.793      76.135     -65.155
  H      409.737      74.363     -65.001
  P      406.976      76.763     -68.176
  C      406.285      75.624     -65.962
  O      406.081      75.707     -67.368
  O      406.725      76.792     -69.646
  O      406.646      78.139     -67.439
  H      406.885      78.939     -67.966
  H      405.629      74.886     -65.549
  H      406.080      76.574     -65.515
  H      407.300      75.349     -65.764

 6  7  8  9  10  11  12  13  14  15  26  29  33  34 0
 6-311+G(2d,p)
 ****
 36  38  39  40  41 0
 6-311+G(2d,p)
 ****
 1  2  3  4  5  16  17  18  19  20  21  22  23  24  25 0
 3-21G
 ****
 27  28  30  31  32  35  37  42  43  44  45  46  47 0
 3-21G
 ****
 48  49 0
 3-21G
 ****


