%nproc=1
%NoSave
%Mem=1900MB
#P OB98/GEN NMR

erre ene a

0 1
  C       -7.060       4.054     -38.799
  O       -6.420       4.734     -39.860
  H       -7.024       2.980     -38.999
  H       -8.105       4.365     -38.736
  H       -6.554       4.253     -37.851
  P       -6.181       6.308     -39.665
  C       -7.772       8.348     -39.456
  O       -7.596       7.020     -39.925
  C       -9.257       8.660     -39.301
  O       -9.948       7.537     -38.711
  C       -9.556       9.860     -38.409
  O       -9.431      11.087     -39.114
  C      -11.004       9.581     -38.043
  O      -11.861       9.931     -39.149
  C      -10.991       8.061     -37.842
  N      -10.558       4.108     -34.698
  C      -10.861       4.142     -36.046
  N      -11.091       2.951     -36.640
  N      -10.937       5.241     -36.749
  C      -10.694       6.357     -36.022
  C      -10.382       6.453     -34.684
  C      -10.293       5.229     -33.921
  O      -10.006       5.141     -32.731
  N      -10.194       7.755     -34.305
  C      -10.411       8.449     -35.404
  N      -10.725       7.648     -36.474
  O       -5.322       6.716     -40.957
  O       -5.485       6.699     -38.406
  H      -11.502       9.482     -39.935
  H       -4.682       7.407     -40.703
  H      -10.523       3.235     -34.202
  H      -10.352       9.525     -35.479
  H      -11.935       7.592     -38.141
  H      -11.340      10.161     -37.182
  H      -11.097       2.072     -36.146
  H       -8.942       9.849     -37.501
  H      -11.282       2.947     -37.634
  H       -9.676       8.812     -40.305
  H       -7.329       9.045     -40.174
  H       -7.262       8.456     -38.494
  P       -9.140      12.413     -38.253
  C      -10.374      13.426     -36.205
  O      -10.480      12.685     -37.416
  O       -9.153      13.570     -39.359
  O       -7.870      12.393     -37.475
  H       -8.644      14.340     -39.042
  H      -11.343      13.526     -35.762
  H       -9.976      14.397     -36.415
  H       -9.724      12.912     -35.528

 6  7  8  9  10  11  12  13  14  15  26  29  33  34 0
 6-311+G(2d,p)
 ****
 36  38  39  40  41 0
 6-311+G(2d,p)
 ****
 1  2  3  4  5  16  17  18  19  20  21  22  23  24  25 0
 3-21G
 ****
 27  28  30  31  32  35  37  42  43  44  45  46  47 0
 3-21G
 ****
 48  49 0
 3-21G
 ****


