%nproc=1
%NoSave
%Mem=1900MB
#P OB98/GEN NMR

erre ene a

0 1
  C      -93.927     -35.104     260.252
  O      -95.066     -34.836     259.459
  H      -94.252     -35.269     261.283
  H      -93.245     -34.251     260.230
  H      -93.416     -36.000     259.894
  P      -94.831     -34.745     257.869
  C      -93.812     -32.344     258.175
  O      -93.665     -33.660     257.670
  C      -93.506     -31.312     257.088
  O      -92.109     -31.430     256.715
  C      -94.342     -31.488     255.816
  O      -94.655     -30.194     255.297
  C      -93.405     -32.216     254.869
  O      -93.762     -32.007     253.502
  C      -92.040     -31.652     255.293
  N      -90.936     -32.545     254.941
  C      -90.328     -32.338     253.698
  O      -90.740     -31.455     252.944
  N      -89.303     -33.164     253.316
  C      -88.958     -34.160     254.080
  N      -87.944     -34.954     253.635
  C      -89.604     -34.445     255.377
  C      -90.568     -33.603     255.744
  O      -96.153     -33.980     257.390
  O      -94.603     -36.063     257.208
  H      -93.739     -31.039     253.330
  H      -96.417     -33.251     257.977
  H      -89.290     -35.295     255.968
  H      -91.091     -33.736     256.689
  H      -91.860     -30.681     254.812
  H      -93.443     -33.295     255.065
  H      -95.263     -32.048     255.979
  H      -93.634     -30.310     257.513
  H      -87.539     -34.735     252.732
  H      -93.140     -32.187     259.026
  H      -87.630     -35.783     254.121
  H      -94.843     -32.228     258.527
  P      -96.030     -29.489     255.723
  C      -97.946     -30.958     254.804
  O      -97.151     -30.622     255.933
  O      -96.457     -28.334     254.877
  O      -95.738     -29.017     257.230
  H      -96.161     -28.140     257.354
  H      -98.648     -31.719     255.076
  H      -97.315     -31.319     254.018
  H      -98.473     -30.090     254.468

 6  7  8  9  10  11  12  13  14  15  16  26  30  31  32  33  35 0
 6-311+G(2d,p)
 ****
 37  38 0
 6-311+G(2d,p)
 ****
 1  2  3  4  5  17  18  19  20  21  22  23  24  25 0
 3-21G
 ****
 27  28  29  34  36  39  40  41  42  43  44  45  46 0
 3-21G
 ****


