%nproc=1
%NoSave
%Mem=1900MB
#P OB98/GEN NMR

erre ene a

0 1
  C      -59.877     718.715    -325.753
  O      -60.068     717.619    -324.878
  H      -59.993     719.640    -325.186
  H      -60.619     718.692    -326.553
  H      -58.869     718.686    -326.181
  P      -59.916     716.154    -325.517
  C      -57.531     715.697    -324.585
  O      -58.913     715.347    -324.564
  C      -56.976     715.670    -323.161
  O      -57.407     716.850    -322.444
  C      -57.458     714.489    -322.333
  O      -56.772     713.289    -322.645
  C      -57.198     714.996    -320.918
  O      -55.833     714.786    -320.535
  C      -57.488     716.492    -321.043
  N      -60.176     717.200    -316.755
  C      -58.867     716.943    -316.974
  N      -58.224     716.780    -318.148
  C      -59.077     716.941    -319.177
  C      -60.433     717.210    -319.117
  C      -60.990     717.342    -317.832
  N      -62.328     717.583    -317.616
  N      -60.974     717.266    -320.383
  C      -59.962     717.040    -321.200
  N      -58.795     716.842    -320.515
  O      -59.054     716.425    -326.838
  O      -61.203     715.458    -325.823
  H      -55.697     713.819    -320.557
  H      -59.647     716.448    -327.615
  H      -58.256     716.846    -316.074
  H      -60.023     716.999    -322.279
  H      -56.749     717.104    -320.512
  H      -57.832     714.482    -320.199
  H      -58.541     714.360    -322.461
  H      -55.878     715.686    -323.216
  H      -57.416     716.703    -324.998
  H      -56.996     714.987    -325.221
  H      -62.668     717.602    -316.670
  H      -62.957     717.577    -318.407
  P      -57.583     711.915    -322.516
  C      -58.519     712.002    -324.949
  O      -57.734     711.309    -323.990
  O      -59.070     712.375    -322.146
  O      -57.030     710.959    -321.509
  H      -59.478     711.732    -321.536
  H      -58.512     711.462    -325.873
  H      -58.112     712.979    -325.104
  H      -59.524     712.087    -324.593

 6  7  8  9  10  11  12  13  14  15  25  28  32  33  34  35 0
 6-311+G(2d,p)
 ****
 36  37  40 0
 6-311+G(2d,p)
 ****
 1  2  3  4  5  16  17  18  19  20  21  22  23  24 0
 3-21G
 ****
 26  27  29  30  31  38  39 41  42  43  44  45  46  47  48 0
 3-21G
 ****


