%nproc=1
%NoSave
%Mem=1900MB
#P OB98/GEN NMR

erre ene a

0 1
  C      313.714     133.147     444.091
  O      313.455     132.101     445.009
  H      313.199     134.048     444.433
  H      313.339     132.882     443.099
  H      314.787     133.349     444.047
  P      314.096     130.671     444.667
  C      313.895     129.227     442.529
  O      313.259     130.151     443.400
  C      312.855     128.443     441.730
  O      311.930     129.345     441.099
  C      313.438     127.580     440.618
  O      313.887     126.339     441.136
  C      312.220     127.399     439.725
  O      311.380     126.358     440.257
  C      311.507     128.758     439.842
  N      309.953     133.053     437.500
  C      309.361     132.278     438.435
  N      309.807     131.121     438.972
  C      310.999     130.785     438.457
  C      311.723     131.477     437.495
  C      311.155     132.667     437.013
  N      311.760     133.454     436.057
  N      312.903     130.826     437.206
  C      312.921     129.793     438.023
  N      311.776     129.703     438.775
  O      314.214     129.724     445.812
  O      315.486     131.111     444.004
  H      311.960     125.597     440.447
  H      315.359     131.883     443.424
  H      308.402     132.632     438.798
  H      313.744     129.094     438.126
  H      310.417     128.642     439.887
  H      312.484     127.106     438.708
  H      314.218     128.108     440.060
  H      312.281     127.829     442.437
  H      314.520     128.532     443.103
  H      311.200     134.178     435.635
  H      312.589     133.095     435.606
  H      314.541     129.797     441.855
  P      314.741     125.325     440.231
  C      314.150     123.577     438.442
  O      313.671     124.645     439.252
  O      315.605     124.388     441.003
  O      315.573     126.274     439.252
  H      316.311     125.774     438.850
  H      313.352     123.205     437.834
  H      314.518     122.791     439.069
  H      314.940     123.932     437.814

 6  7  8  9  10  11  12  13  14  15  25  28  32  33  34  35 0
 6-311+G(2d,p)
 ****
 36  39  40 0
 6-311+G(2d,p)
 ****
 1  2  3  4  5  16  17  18  19  20  21  22  23  24 0
 3-21G
 ****
 26  27  29  30  31  37  38  41  42  43  44  45  46  47 0
 3-21G
 ****
 48 0
 3-21G
 ****


