%nproc=1
%NoSave
%Mem=1900MB
#P OB98/GEN NMR

erre ene a

0 1
  C      -44.732    -158.219      60.294
  O      -45.063    -158.163      58.923
  H      -44.258    -159.186      60.496
  H      -45.627    -158.136      60.914
  H      -44.024    -157.425      60.549
  P      -45.943    -156.930      58.384
  C      -44.221    -155.063      57.993
  O      -44.957    -156.123      57.391
  C      -43.116    -154.550      57.067
  O      -42.329    -155.670      56.584
  C      -43.638    -153.788      55.842
  O      -42.888    -152.581      55.680
  C      -43.367    -154.740      54.683
  O      -43.256    -154.056      53.438
  C      -42.102    -155.452      55.176
  N      -41.836    -156.702      54.471
  C      -41.332    -156.590      53.168
  O      -41.165    -155.477      52.664
  N      -41.064    -157.732      52.462
  C      -41.331    -158.891      52.984
  N      -41.050    -159.986      52.225
  C      -41.908    -159.056      54.334
  C      -42.128    -157.931      55.016
  O      -46.571    -156.099      59.451
  O      -46.996    -157.595      57.383
  H      -42.656    -153.285      53.560
  H      -47.760    -156.980      57.255
  H      -42.121    -160.040      54.721
  H      -42.542    -157.956      56.022
  H      -41.222    -154.800      55.071
  H      -44.191    -155.461      54.602
  H      -44.694    -153.533      55.907
  H      -42.431    -153.931      57.660
  H      -40.656    -159.830      51.306
  H      -43.794    -155.424      58.936
  H      -41.224    -160.934      52.526
  H      -44.918    -154.242      58.205
  P      -43.675    -151.212      55.985
  C      -42.846    -150.788      58.404
  O      -42.809    -150.373      57.048
  O      -44.943    -151.705      56.829
  O      -44.080    -150.465      54.756
  H      -45.733    -151.746      56.257
  H      -42.227    -150.142      58.992
  H      -42.486    -151.793      58.479
  H      -43.853    -150.742      58.764

 6  7  8  9  10  11  12  13  14  15  16  26  30  31  32  33  35 0
 6-311+G(2d,p)
 ****
 37  38 0
 6-311+G(2d,p)
 ****
 1  2  3  4  5  17  18  19  20  21  22  23  24  25 0
 3-21G
 ****
 27  28  29  34  36  39  40  41  42  43  44  45  46 0
 3-21G
 ****


