%nproc=1
%NoSave
%Mem=1900MB
#P OB98/GEN NMR

erre ene a

0 1
  C     -225.678    -215.047     815.560
  O     -225.215    -213.924     816.283
  H     -226.636    -215.366     815.985
  H     -224.966    -215.876     815.646
  H     -225.828    -214.791     814.512
  P     -223.818    -213.269     815.854
  C     -221.354    -214.058     815.881
  O     -222.722    -214.435     816.003
  C     -220.483    -214.982     816.722
  O     -220.672    -216.356     816.332
  C     -218.986    -214.693     816.598
  O     -218.617    -213.606     817.431
  C     -218.414    -216.026     817.073
  O     -218.500    -216.105     818.507
  C     -219.389    -217.027     816.422
  N     -220.664    -219.926     812.462
  C     -221.279    -219.780     813.690
  N     -222.374    -220.549     813.905
  N     -220.861    -218.970     814.625
  C     -219.718    -218.322     814.291
  C     -219.003    -218.397     813.115
  C     -219.510    -219.254     812.064
  O     -219.010    -219.394     810.958
  N     -217.867    -217.636     813.176
  C     -217.906    -217.073     814.365
  N     -219.003    -217.466     815.094
  O     -223.439    -211.996     816.541
  O     -223.945    -213.085     814.270
  H     -219.448    -216.194     818.728
  H     -224.279    -212.199     814.041
  H     -221.025    -220.578     811.788
  H     -217.174    -216.373     814.749
  H     -219.528    -217.920     817.034
  H     -217.371    -216.164     816.800
  H     -222.559    -221.367     813.347
  H     -218.687    -214.539     815.558
  H     -222.806    -220.492     814.812
  H     -220.812    -214.897     817.770
  H     -221.268    -213.018     816.224
  H     -221.044    -214.109     814.832
  P     -217.308    -212.728     817.110
  C     -214.769    -213.187     817.209
  O     -216.073    -213.675     817.493
  O     -217.286    -211.387     817.747
  O     -217.229    -212.686     815.514
  H     -217.738    -211.934     815.114
  H     -214.043    -213.912     817.512
  H     -214.606    -212.274     817.743
  H     -214.676    -213.007     816.158

 6  7  8  9  10  11  12  13  14  15  26  29  33  34 0
 6-311+G(2d,p)
 ****
 36  38  39  40  41 0
 6-311+G(2d,p)
 ****
 1  2  3  4  5  16  17  18  19  20  21  22  23  24  25 0
 3-21G
 ****
 27  28  30  31  32  35  37  42  43  44  45  46  47 0
 3-21G
 ****
 48  49 0
 3-21G
 ****


