%nproc=1
%NoSave
%Mem=1900MB
#P OB98/GEN NMR

erre ene a

0 1
  C      719.022     129.288      85.661
  O      720.265     129.765      85.128
  P      720.224     130.625      83.782
  C      722.344     132.084      84.180
  O      720.930     132.045      84.061
  C      722.814     133.511      84.490
  O      722.694     134.369      83.334
  C      722.014     134.198      85.583
  O      722.454     133.819      86.881
  C      722.347     135.663      85.321
  O      723.639     135.969      85.879
  C      722.401     135.716      83.796
  N      718.979     139.509      83.496
  C      720.099     139.368      84.230
  N      720.948     138.318      84.269
  C      720.549     137.354      83.427
  C      719.427     137.357      82.613
  C      718.616     138.506      82.664
  N      717.469     138.646      81.915
  N      719.338     136.188      81.895
  C      720.394     135.489      82.254
  N      721.154     136.150      83.184
  O      718.677     131.013      83.640
  O      720.719     129.896      82.577
  H      723.624     135.676      86.811
  H      718.430     131.042      82.696
  H      720.355     140.201      84.877
  H      720.654     134.511      81.865
  H      723.190     136.375      83.424
  H      721.630     136.344      85.786
  H      720.932     134.023      85.458
  H      723.873     133.467      84.782
  H      722.816     131.725      83.264
  H      716.956     139.510      81.986
  H      717.211     137.909      81.282
  H      722.653     131.396      84.978
  P      721.429     133.004      87.804
  C      722.722     130.758      87.726
  O      721.565     131.467      87.368
  O      719.995     133.458      87.232
  O      721.566     133.281      89.265
  H      719.330     133.434      87.945
  H      722.533     129.689      87.623
  H      723.011     130.969      88.762
  H      723.550     131.026      87.057
  H      719.208     128.733      86.557
  H      718.545     128.656      84.942
  H      718.386     130.120      85.882

 3  4  5  6  7  8  9  10  11  12  22  25  29  30  31  32 0
 6-311+G(2d,p)
 ****
 33  36  37 0
 6-311+G(2d,p)
 ****
 1  2  13  14  15  16  17  18  19  20  21  23  24  26 0
 3-21G
 ****
 27  28  34  35  38  39  40  41  42  43  44  45  46  47  48 0
 3-21G
 ****


