%nproc=1
%NoSave
%Mem=1900MB
#P OB98/GEN NMR

erre ene a

0 1
  C      363.029    -303.492     -46.308
  O      362.898    -303.939     -44.965
  P      364.119    -303.687     -43.957
  C      363.270    -301.477     -42.896
  O      364.230    -302.100     -43.742
  C      363.845    -300.217     -42.250
  O      362.791    -299.544     -41.506
  C      365.000    -300.467     -41.273
  O      365.884    -299.342     -41.357
  C      364.315    -300.458     -39.920
  O      365.221    -300.202     -38.852
  C      363.268    -299.370     -40.151
  N      360.507    -296.847     -36.667
  C      361.537    -296.457     -37.449
  N      362.220    -297.186     -38.355
  C      361.747    -298.444     -38.411
  C      360.725    -298.991     -37.644
  C      360.087    -298.132     -36.740
  N      359.032    -298.522     -35.946
  N      360.543    -300.322     -37.966
  C      361.434    -300.573     -38.905
  N      362.166    -299.461     -39.219
  O      365.394    -304.031     -44.862
  O      364.098    -304.506     -42.711
  H      364.701    -300.067     -38.037
  H      365.823    -304.850     -44.539
  H      361.845    -295.421     -37.338
  H      361.591    -301.528     -39.380
  H      363.693    -298.361     -40.073
  H      363.842    -301.432     -39.734
  H      365.551    -301.396     -41.457
  H      364.160    -299.532     -43.047
  H      362.997    -302.180     -42.103
  H      358.538    -297.814     -35.424
  H      358.588    -299.415     -36.128
  H      362.378    -301.234     -43.473
  P      367.444    -299.622     -41.109
  C      367.774    -298.898     -43.577
  O      368.112    -299.808     -42.549
  O      367.458    -301.096     -40.483
  O      368.103    -298.630     -40.207
  H      368.240    -301.205     -39.910
  H      368.641    -298.756     -44.225
  H      367.465    -297.923     -43.178
  H      366.951    -299.314     -44.171
  H      362.139    -303.731     -46.852
  H      363.867    -303.976     -46.765
  H      363.180    -302.433     -46.318

 3  4  5  6  7  8  9  10  11  12  22  25  29  30  31  32 0
 6-311+G(2d,p)
 ****
 33  36  37 0
 6-311+G(2d,p)
 ****
 1  2  13  14  15  16  17  18  19  20  21  23  24  26 0
 3-21G
 ****
 27  28  34  35  38  39  40  41  42  43  44  45  46  47  48 0
 3-21G
 ****


