%nproc=1
%NoSave
%Mem=1900MB
#P OB98/GEN NMR

erre ene a

0 1
  C      166.970      19.176     -62.584
  O      166.709      20.124     -61.570
  H      167.200      18.214     -62.117
  H      167.830      19.491     -63.180
  H      166.094      19.057     -63.227
  P      166.353      21.613     -62.046
  C      168.779      22.532     -62.081
  O      167.642      22.149     -62.844
  C      169.540      23.655     -62.787
  O      170.858      23.783     -62.182
  C      169.742      23.419     -64.290
  O      169.621      24.671     -64.974
  C      171.184      22.949     -64.374
  O      171.748      23.168     -65.662
  C      171.815      23.777     -63.258
  N      176.725      23.626     -64.352
  C      175.692      24.316     -64.956
  N      176.012      25.082     -66.022
  N      174.450      24.256     -64.554
  C      174.277      23.472     -63.463
  C      175.211      22.731     -62.781
  C      176.580      22.787     -63.249
  O      177.533      22.182     -62.770
  N      174.632      22.037     -61.747
  C      173.352      22.360     -61.805
  N      173.090      23.230     -62.828
  O      166.387      22.458     -60.686
  O      165.058      21.766     -62.771
  H      171.274      22.592     -66.299
  H      165.765      23.211     -60.728
  H      177.661      23.699     -64.708
  H      172.582      21.993     -61.140
  H      172.000      24.815     -63.561
  H      171.245      21.877     -64.149
  H      176.951      25.203     -66.368
  H      169.042      22.698     -64.718
  H      175.272      25.608     -66.473
  H      169.018      24.601     -62.603
  H      169.437      21.664     -61.963
  H      168.450      22.871     -61.094
  P      168.347      24.877     -65.926
  C      169.515      24.592     -68.226
  O      168.586      24.066     -67.290
  O      168.481      26.409     -66.376
  O      167.040      24.625     -65.249
  H      167.796      26.943     -65.934
  H      169.567      23.947     -69.078
  H      170.481      24.659     -67.771
  H      169.198      25.566     -68.535

 6  7  8  9  10  11  12  13  14  15  26  29  33  34 0
 6-311+G(2d,p)
 ****
 36  38  39  40  41 0
 6-311+G(2d,p)
 ****
 1  2  3  4  5  16  17  18  19  20  21  22  23  24  25 0
 3-21G
 ****
 27  28  30  31  32  35  37  42  43  44  45  46  47 0
 3-21G
 ****
 48  49 0
 3-21G
 ****


