%nproc=1
%NoSave
%Mem=1900MB
#P OB98/GEN NMR

erre ene a

0 1
  C      391.863     908.264    -238.033
  O      390.863     909.056    -238.633
  P      389.750     909.793    -237.753
  C      388.679     910.216    -240.127
  O      388.682     910.460    -238.725
  C      387.986     911.382    -240.842
  O      386.570     911.399    -240.507
  C      388.582     912.708    -240.432
  O      389.587     913.111    -241.379
  C      387.378     913.627    -240.424
  O      387.059     914.069    -241.769
  C      386.266     912.679    -239.893
  N      386.171     912.484    -238.424
  C      385.569     913.462    -237.646
  O      385.067     914.488    -238.095
  N      385.569     913.207    -236.285
  C      386.072     912.087    -235.688
  O      386.293     912.008    -234.483
  C      386.442     910.998    -236.587
  C      386.502     911.241    -237.889
  O      390.537     911.042    -237.145
  O      389.127     908.956    -236.686
  H      386.850     913.282    -242.286
  H      390.829     910.872    -236.242
  H      385.254     913.981    -235.702
  H      386.707     910.048    -236.145
  H      386.804     910.456    -238.574
  H      385.281     912.999    -240.254
  H      387.581     914.525    -239.851
  H      388.989     912.656    -239.425
  H      388.066     911.217    -241.930
  H      388.144     909.268    -240.316
  H      389.691     910.081    -240.490
  P      391.108     912.684    -241.117
  C      391.726     915.079    -241.814
  O      391.984     913.702    -242.001
  O      391.415     911.230    -241.317
  O      391.369     913.137    -239.604
  H      391.274     912.374    -239.010
  H      392.493     915.656    -242.342
  H      391.740     915.318    -240.748
  H      390.748     915.329    -242.242
  H      392.503     907.863    -238.791
  H      391.406     907.462    -237.492
  H      392.439     908.865    -237.361

 3  4  5  6  7  8  9  10  11  12  13  23  28  29  30  31  32 0
 6-311+G(2d,p)
 ****
 33  34 0
 6-311+G(2d,p)
 ****
 1  2  14  15  16  17  18  19  20  21  22  24  25  26  27 0
 3-21G
 ****
 35  36  37  38  39  40  41  42  43  44  45 0
 3-21G
 ****


