%nproc=1
%NoSave
%Mem=1900MB
#P OB98/GEN NMR

erre ene a

0 1
  C      337.715     192.066      81.806
  O      337.291     192.807      80.673
  P      336.469     194.163      80.946
  C      334.230     192.831      80.950
  O      335.086     193.738      81.633
  C      332.982     192.549      81.782
  O      333.352     191.959      83.046
  C      332.166     193.787      82.138
  O      331.410     194.236      81.024
  C      331.333     193.249      83.296
  O      330.236     192.465      82.794
  C      332.345     192.342      84.020
  N      332.465     192.780      89.121
  C      331.670     192.058      88.296
  N      331.687     192.010      86.952
  C      332.651     192.808      86.458
  C      333.518     193.618      87.172
  C      333.404     193.581      88.572
  N      334.214     194.320      89.408
  N      334.351     194.312      86.322
  C      334.002     193.922      85.112
  N      332.988     193.005      85.144
  O      336.028     194.620      79.479
  O      337.238     195.230      81.661
  H      329.770     192.091      83.569
  H      336.013     195.595      79.407
  H      330.927     191.436      88.788
  H      334.453     194.268      84.195
  H      331.887     191.420      84.398
  H      330.914     194.039      83.926
  H      332.824     194.592      82.490
  H      332.363     191.827      81.235
  H      334.761     191.890      80.777
  H      333.967     194.354      90.388
  H      334.814     195.025      88.992
  H      333.964     193.261      79.979
  P      331.052     195.800      80.967
  C      328.673     195.157      81.699
  O      329.814     195.945      81.983
  O      330.340     195.913      79.536
  O      332.201     196.720      81.199
  H      329.665     195.229      79.408
  H      327.936     195.316      82.488
  H      328.942     194.095      81.667
  H      328.235     195.459      80.745
  H      338.246     191.195      81.484
  H      336.861     191.772      82.380
  H      338.358     192.673      82.409

 3  4  5  6  7  8  9  10  11  12  22  25  29  30  31  32 0
 6-311+G(2d,p)
 ****
 33  36  37 0
 6-311+G(2d,p)
 ****
 1  2  13  14  15  16  17  18  19  20  21  23  24  26 0
 3-21G
 ****
 27  28  34  35  38  39  40  41  42  43  44  45  46  47  48 0
 3-21G
 ****


