%nproc=1
%NoSave
%Mem=1900MB
#P OB98/GEN NMR

erre ene a

0 1
  C      -21.706    -275.222      66.341
  O      -20.994    -274.378      65.454
  H      -22.046    -276.103      65.789
  H      -22.579    -274.698      66.740
  H      -21.056    -275.546      67.158
  P      -20.386    -273.032      66.084
  C      -22.686    -271.845      66.182
  O      -21.391    -271.882      65.595
  C      -23.617    -270.951      65.370
  O      -24.958    -271.013      65.886
  C      -23.238    -269.473      65.381
  O      -22.200    -269.210      64.451
  C      -24.554    -268.839      64.952
  O      -24.700    -268.946      63.521
  C      -25.600    -269.729      65.651
  N      -29.663    -267.739      68.079
  C      -29.433    -267.992      66.772
  N      -28.312    -268.481      66.194
  C      -27.366    -268.717      67.116
  C      -27.455    -268.511      68.484
  C      -28.674    -268.006      68.967
  N      -28.910    -267.761      70.304
  N      -26.279    -268.867      69.112
  C      -25.512    -269.329      68.146
  N      -26.110    -269.228      66.913
  O      -18.938    -272.796      65.832
  O      -20.791    -273.207      67.623
  H      -24.630    -269.890      63.289
  H      -21.676    -273.605      67.703
  H      -30.256    -267.772      66.100
  H      -24.529    -269.765      68.287
  H      -26.471    -269.911      65.012
  H      -24.604    -267.777      65.199
  H      -22.990    -269.132      66.391
  H      -23.645    -271.340      64.342
  H      -22.623    -271.481      67.217
  H      -29.740    -267.244      70.543
  H      -28.133    -267.842      70.945
  H      -23.067    -272.871      66.200
  P      -21.026    -268.176      64.810
  C      -22.341    -266.265      63.703
  O      -21.119    -266.991      63.730
  O      -19.672    -268.781      64.950
  O      -21.508    -267.473      66.163
  H      -20.745    -267.324      66.758
  H      -22.289    -265.506      62.950
  H      -22.507    -265.810      64.657
  H      -23.147    -266.932      63.481

 6  7  8  9  10  11  12  13  14  15  25  28  32  33  34  35 0
 6-311+G(2d,p)
 ****
 36  39  40 0
 6-311+G(2d,p)
 ****
 1  2  3  4  5  16  17  18  19  20  21  22  23  24 0
 3-21G
 ****
 26  27  29  30  31  37  38  41  42  43  44  45  46  47 0
 3-21G
 ****
 48 0
 3-21G
 ****


