%nproc=1
%NoSave
%Mem=1900MB
#P OB98/GEN NMR

erre ene a

0 1
  C      -63.590       8.102      74.483
  O      -63.193       7.176      75.469
  H      -63.699       7.576      73.531
  H      -62.820       8.871      74.372
  H      -64.544       8.572      74.735
  P      -63.397       7.555      77.008
  C      -64.663       6.591      79.040
  O      -64.196       6.356      77.718
  C      -65.980       5.864      79.312
  O      -67.029       6.443      78.507
  C      -65.916       4.377      78.952
  O      -65.427       3.542      79.987
  C      -67.377       4.065      78.639
  O      -68.094       3.682      79.825
  C      -67.914       5.392      78.092
  N      -70.223       3.410      73.984
  C      -70.257       2.970      75.294
  N      -70.966       1.843      75.520
  N      -69.639       3.576      76.273
  C      -68.892       4.630      75.874
  C      -68.764       5.147      74.604
  C      -69.511       4.514      73.538
  O      -69.527       4.874      72.366
  N      -67.884       6.202      74.574
  C      -67.418       6.263      75.806
  N      -68.058       5.384      76.648
  O      -64.498       8.722      76.961
  O      -62.167       8.020      77.727
  H      -67.597       2.962      80.259
  H      -64.350       9.339      77.700
  H      -70.743       2.919      73.279
  H      -66.655       6.952      76.151
  H      -68.902       5.625      78.508
  H      -67.456       3.229      77.940
  H      -71.388       1.291      74.793
  H      -65.333       4.225      78.039
  H      -70.861       1.383      76.427
  H      -66.264       6.010      80.362
  H      -64.805       7.668      79.133
  H      -63.905       6.294      79.770
  P      -65.680       1.964      79.957
  C      -64.666      -0.090      81.241
  O      -64.550       1.256      80.832
  O      -65.291       1.565      78.458
  O      -67.063       1.528      80.312
  H      -66.090       1.485      77.904
  H      -63.805      -0.364      81.814
  H      -64.736      -0.720      80.379
  H      -65.545      -0.206      81.840

 6  7  8  9  10  11  12  13  14  15  26  29  33  34 0
 6-311+G(2d,p)
 ****
 36  38  39  40  41 0
 6-311+G(2d,p)
 ****
 1  2  3  4  5  16  17  18  19  20  21  22  23  24  25 0
 3-21G
 ****
 27  28  30  31  32  35  37  42  43  44  45  46  47 0
 3-21G
 ****
 48  49 0
 3-21G
 ****


