%nproc=1
%NoSave
%Mem=1900MB
#P OB98/GEN NMR

erre ene a

0 1
  C     -181.142     -43.743    -158.274
  O     -182.279     -44.395    -158.813
  P     -183.270     -43.556    -159.748
  C     -182.597     -44.788    -161.937
  O     -182.661     -43.557    -161.231
  C     -183.205     -44.638    -163.334
  O     -182.698     -43.414    -163.950
  C     -182.880     -45.796    -164.286
  O     -184.014     -45.978    -165.151
  C     -181.712     -45.248    -165.088
  O     -181.507     -45.924    -166.317
  C     -182.152     -43.785    -165.233
  N     -181.060     -42.899    -165.629
  C     -180.518     -43.078    -166.900
  O     -180.907     -43.930    -167.698
  N     -179.458     -42.274    -167.218
  C     -178.838     -41.393    -166.379
  O     -177.817     -40.789    -166.684
  C     -179.446     -41.249    -165.048
  C     -180.513     -41.991    -164.738
  O     -183.057     -42.048    -159.248
  O     -184.703     -43.974    -159.667
  H     -180.772     -45.479    -166.779
  H     -183.777     -41.783    -158.651
  H     -179.061     -42.383    -168.139
  H     -178.993     -40.541    -164.364
  H     -180.973     -41.917    -163.758
  H     -182.967     -43.703    -165.964
  H     -180.793     -45.331    -164.497
  H     -182.640     -46.733    -163.772
  H     -184.292     -44.523    -163.231
  H     -183.153     -45.548    -161.385
  H     -181.555     -45.118    -162.004
  P     -184.167     -47.391    -165.899
  C     -186.100     -48.279    -164.383
  O     -184.769     -48.420    -164.830
  O     -182.629     -47.828    -166.035
  O     -184.878     -47.301    -167.214
  H     -182.119     -47.659    -165.223
  H     -186.757     -47.907    -165.175
  H     -186.128     -47.592    -163.535
  H     -186.468     -49.260    -164.054
  H     -180.585     -44.434    -157.676
  H     -181.457     -42.920    -157.668
  H     -180.526     -43.384    -159.071

 3  4  5  6  7  8  9  10  11  12  13  23  28  29  30  31  32 0
 6-311+G(2d,p)
 ****
 33  34 0
 6-311+G(2d,p)
 ****
 1  2  14  15  16  17  18  19  20  21  22  24  25  26 0
 3-21G
 ****
 27  35  36  37  38  39  40  41  42  43  44  45 0
 3-21G
 ****


