%nproc=1
%NoSave
%Mem=1900MB
#P OB98/GEN NMR

erre ene a

0 1
  C       54.388    -131.795    -250.938
  O       55.470    -132.620    -250.556
  H       54.645    -130.756    -250.720
  H       53.487    -132.061    -250.376
  H       54.202    -131.896    -252.010
  P       55.271    -134.201    -250.743
  C       57.507    -134.557    -251.974
  O       56.765    -134.792    -250.784
  C       59.008    -134.616    -251.686
  O       59.404    -133.374    -251.048
  C       59.410    -135.763    -250.751
  O       60.686    -136.266    -251.150
  C       59.543    -135.078    -249.402
  O       60.385    -135.800    -248.508
  C       60.069    -133.706    -249.817
  N       61.435    -132.108    -245.180
  C       61.976    -133.017    -246.019
  N       61.558    -133.365    -247.254
  C       60.496    -132.623    -247.622
  C       59.836    -131.664    -246.877
  C       60.343    -131.417    -245.588
  N       59.779    -130.520    -244.711
  N       58.762    -131.159    -247.583
  C       58.779    -131.797    -248.740
  N       59.800    -132.706    -248.798
  O       54.395    -134.610    -251.879
  O       54.765    -134.646    -249.292
  H       60.444    -135.301    -247.666
  H       55.310    -134.249    -248.585
  H       62.856    -133.540    -245.649
  H       58.073    -131.650    -249.552
  H       61.153    -133.707    -249.994
  H       58.556    -134.988    -248.932
  H       58.681    -136.574    -250.730
  H       59.549    -134.672    -252.638
  H       57.252    -133.576    -252.391
  H       60.211    -130.405    -243.808
  H       58.970    -129.990    -244.997
  H       57.228    -135.327    -252.703
  P       60.757    -137.622    -252.003
  C       62.187    -136.663    -253.921
  O       62.110    -137.615    -252.869
  O       59.523    -137.972    -252.764
  O       61.072    -138.726    -250.883
  H       60.535    -139.524    -251.063
  H       63.129    -136.758    -254.419
  H       62.095    -135.677    -253.517
  H       61.395    -136.838    -254.619

 6  7  8  9  10  11  12  13  14  15  25  28  32  33  34  35 0
 6-311+G(2d,p)
 ****
 36  39  40 0
 6-311+G(2d,p)
 ****
 1  2  3  4  5  16  17  18  19  20  21  22  23  24 0
 3-21G
 ****
 26  27  29  30  31  37  38  41  42  43  44  45  46  47 0
 3-21G
 ****
 48 0
 3-21G
 ****


