%nproc=1
%NoSave
%Mem=1900MB
#P OB98/GEN NMR

erre ene a

0 1
  C     -491.336     246.232    -174.762
  O     -490.593     246.429    -175.963
  P     -489.600     247.687    -176.049
  C     -488.511     248.635    -173.826
  O     -488.565     247.641    -174.830
  C     -487.041     248.858    -173.424
  O     -486.499     247.677    -172.808
  C     -486.140     249.200    -174.609
  O     -486.142     250.586    -174.895
  C     -484.793     248.681    -174.135
  O     -484.200     249.607    -173.199
  C     -485.212     247.379    -173.414
  N     -485.347     246.147    -174.235
  C     -484.239     245.650    -174.922
  O     -483.126     246.168    -174.916
  N     -484.451     244.493    -175.635
  C     -485.568     243.713    -175.595
  O     -485.678     242.656    -176.208
  C     -486.649     244.207    -174.734
  C     -486.500     245.380    -174.112
  O     -490.533     248.935    -175.712
  O     -488.912     247.840    -177.372
  H     -484.146     250.469    -173.641
  H     -490.601     249.528    -176.484
  H     -483.684     244.163    -176.201
  H     -487.537     243.591    -174.636
  H     -487.298     245.753    -173.477
  H     -484.505     247.144    -172.607
  H     -484.096     248.593    -174.963
  H     -486.435     248.623    -175.488
  H     -487.007     249.679    -172.687
  H     -489.094     248.335    -172.954
  H     -488.949     249.564    -174.201
  P     -486.322     251.091    -176.409
  C     -488.326     251.522    -177.958
  O     -487.916     251.105    -176.671
  O     -485.505     250.386    -177.439
  O     -485.978     252.658    -176.328
  H     -485.037     252.817    -176.579
  H     -489.403     251.331    -178.057
  H     -487.797     250.951    -178.725
  H     -488.147     252.586    -178.080
  H     -491.947     245.359    -174.860
  H     -491.958     247.084    -174.583
  H     -490.661     246.105    -173.942

 3  4  5  6  7  8  9  10  11  12  13  23  28  29  30  31  32 0
 6-311+G(2d,p)
 ****
 33  34 0
 6-311+G(2d,p)
 ****
 1  2  14  15  16  17  18  19  20  21  22  24  25  26  27 0
 3-21G
 ****
 35  36  37  38  39  40  41  42  43  44  45 0
 3-21G
 ****


