%nproc=1
%NoSave
%Mem=1900MB
#P OB98/GEN NMR

erre ene a

0 1
  C     -310.349    -104.057    -289.745
  O     -311.108    -103.298    -290.667
  H     -310.047    -103.403    -288.918
  H     -309.450    -104.461    -290.218
  H     -310.955    -104.871    -289.340
  P     -311.450    -103.963    -292.087
  C     -310.027    -102.151    -293.258
  O     -310.238    -103.545    -293.059
  C     -308.720    -101.896    -294.015
  O     -307.613    -102.498    -293.310
  C     -308.689    -102.506    -295.408
  O     -309.556    -101.882    -296.333
  C     -307.197    -102.568    -295.703
  O     -306.675    -101.361    -296.250
  C     -306.603    -102.804    -294.292
  N     -306.087    -104.156    -294.138
  C     -304.824    -104.390    -294.675
  O     -304.172    -103.535    -295.276
  N     -304.346    -105.668    -294.545
  C     -305.013    -106.715    -293.985
  O     -304.542    -107.846    -293.936
  C     -306.354    -106.417    -293.456
  C     -306.819    -105.168    -293.555
  O     -312.808    -103.646    -292.645
  O     -311.204    -105.525    -291.847
  H     -306.990    -100.627    -295.684
  H     -311.629    -106.066    -292.556
  H     -303.427    -105.851    -294.922
  H     -306.910    -107.227    -293.006
  H     -307.807    -104.925    -293.172
  H     -305.773    -102.104    -294.111
  H     -306.963    -103.370    -296.413
  H     -309.032    -103.542    -295.331
  H     -308.547    -100.810    -294.053
  H     -309.971    -101.679    -292.271
  H     -310.876    -101.724    -293.806
  P     -309.977    -102.541    -297.724
  C     -309.007    -100.452    -298.929
  O     -309.088    -101.873    -298.886
  O     -311.440    -102.737    -297.962
  O     -309.315    -104.008    -297.594
  H     -309.902    -104.640    -298.055
  H     -308.386    -100.155    -299.748
  H     -308.587    -100.091    -298.014
  H     -309.987    -100.043    -299.057

 6  7  8  9  10  11  12  13  14  15  16  26  31  32  33  34  35 0
 6-311+G(2d,p)
 ****
 36  37 0
 6-311+G(2d,p)
 ****
 1  2  3  4  5  17  18  19  20  21  22  23  24  25 0
 3-21G
 ****
 27  28  29  30  38  39  40  41  42  43  44  45 0
 3-21G
 ****


