%nproc=1
%NoSave
%Mem=1900MB
#P OB98/GEN NMR

erre ene a

0 1
  C      299.116     127.312      -4.505
  O      300.433     127.819      -4.778
  P      300.962     127.838      -6.294
  C      301.833     125.394      -6.557
  O      300.879     126.373      -6.939
  C      301.981     124.307      -7.634
  O      303.061     123.391      -7.277
  C      300.725     123.455      -7.857
  O      300.700     123.095      -9.248
  C      301.002     122.231      -7.004
  O      300.217     121.104      -7.368
  C      302.503     122.060      -7.258
  N      303.187     121.224      -6.267
  C      303.299     119.861      -6.528
  O      302.809     119.301      -7.507
  N      303.986     119.132      -5.593
  C      304.523     119.608      -4.430
  O      305.100     118.895      -3.618
  C      304.350     121.047      -4.194
  C      303.701     121.774      -5.107
  O      302.539     128.032      -6.094
  O      300.413     128.936      -7.149
  H      300.224     121.043      -8.341
  H      302.871     128.716      -6.709
  H      304.090     118.145      -5.772
  H      304.764     121.468      -3.287
  H      303.572     122.845      -4.960
  H      302.661     121.634      -8.255
  H      300.784     122.462      -5.956
  H      299.800     123.976      -7.583
  H      302.283     124.797      -8.569
  H      301.513     124.924      -5.621
  H      302.797     125.883      -6.382
  P      299.744     123.926     -10.234
  C      297.723     122.275     -10.394
  O      298.237     123.497      -9.912
  O      300.050     123.182     -11.623
  O      300.026     125.394     -10.278
  H      300.050     122.212     -11.534
  H      298.459     121.472     -10.308
  H      297.422     122.388     -11.439
  H      296.841     122.006      -9.800
  H      298.922     127.370      -3.454
  H      299.053     126.292      -4.823
  H      298.392     127.896      -5.034

 3  4  5  6  7  8  9  10  11  12  13  23  28  29  30  31  32 0
 6-311+G(2d,p)
 ****
 33  34 0
 6-311+G(2d,p)
 ****
 1  2  14  15  16  17  18  19  20  21  22  24  25  26 0
 3-21G
 ****
 27  35  36  37  38  39  40  41  42  43  44  45 0
 3-21G
 ****


