%nproc=1
%NoSave
%Mem=1900MB
#P OB98/GEN NMR

erre ene a

0 1
  C     -817.244     152.528     565.498
  O     -817.120     153.572     566.440
  H     -818.157     152.686     564.915
  H     -817.329     151.559     566.009
  H     -816.391     152.515     564.811
  P     -815.785     153.655     567.320
  C     -815.085     156.095     566.856
  O     -814.817     154.719     566.612
  C     -814.087     156.962     566.087
  O     -814.382     156.934     564.670
  C     -814.105     158.433     566.491
  O     -813.455     158.645     567.725
  C     -813.423     159.073     565.292
  O     -811.999     158.955     565.387
  C     -813.978     158.221     564.125
  N     -815.077     158.869     563.416
  C     -814.748     159.949     562.601
  O     -813.602     160.385     562.511
  N     -815.789     160.543     561.946
  C     -817.111     160.232     562.095
  O     -818.022     160.853     561.540
  C     -817.410     159.099     562.970
  C     -816.407     158.476     563.589
  O     -815.149     152.347     567.659
  O     -816.261     154.436     568.652
  H     -811.721     159.530     566.126
  H     -816.339     153.793     569.382
  H     -815.573     161.339     561.363
  H     -818.446     158.807     563.108
  H     -816.603     157.632     564.253
  H     -813.185     158.000     563.396
  H     -813.659     160.133     565.203
  H     -815.143     158.796     566.543
  H     -813.082     156.536     566.233
  H     -814.987     156.283     567.927
  H     -816.119     156.319     566.543
  P     -814.299     158.943     569.047
  C     -813.300     157.040     570.450
  O     -814.480     157.566     569.850
  O     -815.570     159.717     568.834
  O     -813.287     159.773     569.976
  H     -813.659     160.655     570.158
  H     -813.534     156.127     570.956
  H     -812.911     157.747     571.152
  H     -812.568     156.851     569.692

 6  7  8  9  10  11  12  13  14  15  16  26  31  32  33  34  35 0
 6-311+G(2d,p)
 ****
 36  37 0
 6-311+G(2d,p)
 ****
 1  2  3  4  5  17  18  19  20  21  22  23  24  25 0
 3-21G
 ****
 27  28  29  30  38  39  40  41  42  43  44  45 0
 3-21G
 ****


