%nproc=1
%NoSave
%Mem=1900MB
#P OB98/GEN NMR

erre ene a

0 1
  C      114.403     261.527      11.660
  O      113.476     260.592      11.076
  P      112.828     259.454      12.010
  C      114.330     257.446      11.283
  O      113.906     258.310      12.328
  C      114.781     256.079      11.836
  O      115.250     255.232      10.740
  C      115.914     256.154      12.865
  O      115.708     255.078      13.797
  C      117.150     255.890      12.020
  O      118.271     255.468      12.776
  C      116.595     254.821      11.066
  N      117.393     254.638       9.848
  C      118.478     253.765       9.905
  O      118.849     253.188      10.923
  N      119.162     253.593       8.728
  C      118.903     254.218       7.541
  O      119.575     254.041       6.530
  C      117.763     255.149       7.551
  C      117.075     255.314       8.682
  O      111.839     258.718      10.988
  O      112.069     259.957      13.195
  H      118.983     255.234      12.149
  H      110.970     258.575      11.414
  H      119.937     252.951       8.747
  H      117.522     255.662       6.630
  H      116.221     255.983       8.708
  H      116.519     253.861      11.593
  H      117.430     256.809      11.490
  H      115.950     257.117      13.395
  H      113.900     255.582      12.262
  H      115.166     257.910      10.748
  H      113.502     257.313      10.575
  P      115.190     255.432      15.271
  C      117.500     255.307      16.493
  O      116.411     256.100      16.066
  O      115.094     253.958      15.904
  O      113.886     256.171      15.310
  H      115.878     253.423      15.709
  H      117.785     254.575      15.729
  H      117.233     254.787      17.416
  H      118.357     255.956      16.687
  H      114.738     262.212      10.910
  H      115.242     260.996      12.059
  H      113.917     262.067      12.445

 3  4  5  6  7  8  9  10  11  12  13  23  28  29  30  31  32 0
 6-311+G(2d,p)
 ****
 33  34 0
 6-311+G(2d,p)
 ****
 1  2  14  15  16  17  18  19  20  21  22  24  25  26 0
 3-21G
 ****
 27  35  36  37  38  39  40  41  42  43  44  45 0
 3-21G
 ****


