%nproc=1
%NoSave
%Mem=1900MB
#P OB98/GEN NMR

erre ene a

0 1
  C      182.062     -32.639     -50.368
  O      181.133     -32.736     -51.428
  H      183.072     -32.857     -50.726
  H      182.039     -31.620     -49.973
  H      181.792     -33.335     -49.568
  P      181.093     -34.134     -52.214
  C      178.516     -33.907     -52.056
  O      179.631     -34.246     -52.868
  C      177.295     -33.638     -52.925
  O      177.100     -34.720     -53.862
  C      175.981     -33.528     -52.163
  O      175.827     -32.256     -51.548
  C      174.981     -33.726     -53.294
  O      174.817     -32.492     -54.017
  C      175.686     -34.763     -54.181
  N      171.875     -38.079     -55.107
  C      172.043     -36.781     -55.447
  N      173.073     -35.960     -55.157
  C      174.012     -36.607     -54.449
  C      173.981     -37.927     -54.032
  C      172.846     -38.676     -54.382
  N      172.677     -39.995     -54.017
  N      175.129     -38.246     -53.340
  C      175.845     -37.141     -53.337
  N      175.208     -36.118     -53.991
  O      181.057     -35.222     -51.039
  O      182.232     -34.375     -53.147
  H      174.531     -31.823     -53.366
  H      181.568     -36.006     -51.317
  H      171.241     -36.340     -56.036
  H      176.821     -37.037     -52.882
  H      175.591     -34.515     -55.244
  H      173.994     -34.035     -52.946
  H      175.873     -34.342     -51.437
  H      177.486     -32.725     -53.504
  H      178.748     -33.008     -51.476
  H      171.948     -40.530     -54.459
  H      173.415     -40.437     -53.480
  H      178.319     -34.734     -51.365
  P      175.051     -32.203     -50.143
  C      176.153     -29.856     -50.079
  O      175.032     -30.656     -49.721
  O      176.100     -32.851     -49.123
  O      173.740     -32.912     -50.115
  H      175.629     -33.233     -48.358
  H      176.001     -28.854     -49.735
  H      176.265     -29.854     -51.143
  H      177.036     -30.258     -49.628

 6  7  8  9  10  11  12  13  14  15  25  28  32  33  34  35 0
 6-311+G(2d,p)
 ****
 36  39  40 0
 6-311+G(2d,p)
 ****
 1  2  3  4  5  16  17  18  19  20  21  22  23  24 0
 3-21G
 ****
 26  27  29  30  31  37  38  41  42  43  44  45  46  47  48 0
 3-21G
 ****


