%nproc=1
%NoSave
%Mem=1900MB
#P OB98/GEN NMR

erre ene a

0 1
  C       52.692      27.350      41.531
  O       51.630      28.224      41.210
  H       53.535      27.569      40.870
  H       52.392      26.310      41.382
  H       53.013      27.502      42.565
  P       50.242      28.068      41.993
  C       50.347      30.412      43.067
  O       50.335      29.006      43.292
  C       48.949      30.995      43.300
  O       48.741      31.083      44.731
  C       48.791      32.401      42.702
  O       47.659      32.521      41.844
  C       48.850      33.309      43.925
  O       48.181      34.544      43.775
  C       48.303      32.418      45.045
  N       48.749      32.806      46.381
  C       47.973      33.735      47.068
  O       46.931      34.235      46.650
  N       48.435      34.087      48.310
  C       49.565      33.621      48.910
  O       49.924      33.969      50.028
  C       50.354      32.660      48.126
  C       49.918      32.303      46.915
  O       49.807      26.667      42.266
  O       49.187      28.839      41.068
  H       47.325      34.368      43.334
  H       48.660      28.192      40.564
  H       47.874      34.750      48.821
  H       51.263      32.277      48.567
  H       50.474      31.594      46.310
  H       47.213      32.427      45.044
  H       49.902      33.538      44.131
  H       49.633      32.641      42.043
  H       48.204      30.299      42.899
  H       50.664      30.586      42.034
  H       51.064      30.887      43.745
  P       47.724      32.963      40.313
  C       47.532      30.708      38.989
  O       48.356      31.758      39.472
  O       48.271      34.326      40.057
  O       46.174      32.968      39.863
  H       46.081      33.676      39.194
  H       48.132      30.001      38.454
  H       46.787      31.111      38.335
  H       47.056      30.220      39.814

 6  7  8  9  10  11  12  13  14  15  16  26  31  32  33  34  35 0
 6-311+G(2d,p)
 ****
 36  37 0
 6-311+G(2d,p)
 ****
 1  2  3  4  5  17  18  19  20  21  22  23  24  25 0
 3-21G
 ****
 27  28  29  30  38  39  40  41  42  43  44  45 0
 3-21G
 ****


