%nproc=1
%NoSave
%Mem=1900MB
#P OB98/GEN NMR

erre ene a

0 1
  C      372.057     299.243     748.346
  O      373.123     298.329     748.494
  H      371.240     298.740     747.823
  H      372.383     300.100     747.748
  H      371.693     299.587     749.315
  P      374.315     298.691     749.498
  C      375.490     300.064     747.653
  O      375.606     299.012     748.600
  C      376.764     300.175     746.806
  O      377.853     300.629     747.651
  C      377.184     298.815     746.238
  O      377.906     298.942     745.015
  C      378.119     298.274     747.310
  O      379.026     297.292     746.814
  C      378.798     299.554     747.790
  N      382.797     299.046     750.911
  C      382.728     298.873     749.543
  N      383.880     298.526     748.924
  N      381.633     299.009     748.847
  C      380.544     299.292     749.606
  C      380.477     299.464     750.965
  C      381.707     299.344     751.724
  O      381.819     299.463     752.936
  N      379.195     299.732     751.378
  C      378.487     299.713     750.267
  N      379.261     299.478     749.161
  O      374.696     297.279     750.154
  O      373.993     299.717     750.543
  H      378.503     296.629     746.328
  H      375.146     297.414     751.007
  H      383.673     298.957     751.391
  H      377.419     299.884     750.212
  H      379.664     299.791     747.158
  H      377.508     297.797     748.083
  H      384.690     298.217     749.445
  H      376.341     298.146     746.079
  H      383.791     298.096     747.996
  H      376.633     300.932     746.025
  H      375.321     300.983     748.216
  H      374.615     299.907     747.015
  P      377.079     299.041     743.646
  C      377.905     296.730     742.646
  O      377.768     298.129     742.531
  O      377.358     300.535     743.145
  O      375.615     298.759     743.784
  H      376.529     301.049     743.145
  H      378.397     296.347     741.776
  H      376.937     296.283     742.734
  H      378.485     296.499     743.515

 6  7  8  9  10  11  12  13  14  15  26  29  33  34 0
 6-311+G(2d,p)
 ****
 36  38  39  40  41 0
 6-311+G(2d,p)
 ****
 1  2  3  4  5  16  17  18  19  20  21  22  23  24  25 0
 3-21G
 ****
 27  28  30  31  32  35  37  42  43  44  45  46  47 0
 3-21G
 ****
 48  49 0
 3-21G
 ****


