%nproc=1
%NoSave
%Mem=1900MB
#P OB98/GEN NMR

erre ene a

0 1
  C       54.873    -537.467     591.533
  O       54.037    -538.541     591.904
  H       54.390    -536.906     590.730
  H       55.826    -537.861     591.165
  H       55.056    -536.794     592.375
  P       54.272    -539.250     593.319
  C       54.489    -541.668     594.192
  O       54.469    -540.822     593.052
  C       54.867    -543.106     593.834
  O       53.828    -543.705     593.025
  C       56.146    -543.178     593.001
  O       57.354    -543.161     593.741
  C       55.969    -544.510     592.272
  O       56.428    -545.605     593.083
  C       54.455    -544.587     592.074
  N       51.540    -545.704     588.029
  C       51.695    -546.406     589.208
  N       51.031    -547.582     589.295
  N       52.443    -545.995     590.198
  C       53.117    -544.854     589.930
  C       53.058    -544.074     588.789
  C       52.180    -544.512     587.721
  O       52.014    -543.930     586.652
  N       53.885    -542.984     588.883
  C       54.498    -543.135     590.040
  N       54.046    -544.241     590.724
  O       52.825    -539.197     594.012
  O       55.311    -538.613     594.191
  H       56.489    -546.398     592.518
  H       52.922    -539.210     594.981
  H       50.929    -546.056     587.311
  H       55.253    -542.465     590.438
  H       54.074    -545.598     592.274
  H       56.544    -544.540     591.345
  H       50.540    -547.995     588.517
  H       56.161    -542.378     592.254
  H       51.325    -548.242     590.018
  H       54.946    -543.703     594.750
  H       53.485    -541.644     594.622
  H       55.175    -541.272     594.950
  P       58.658    -542.467     593.133
  C       60.818    -543.313     591.944
  O       59.579    -543.638     592.536
  O       59.448    -541.988     594.437
  O       58.393    -541.338     592.197
  H       59.256    -541.048     594.621
  H       61.296    -544.207     591.602
  H       61.442    -542.829     592.666
  H       60.656    -542.656     591.115

 6  7  8  9  10  11  12  13  14  15  26  29  33  34 0
 6-311+G(2d,p)
 ****
 36  38  39  40  41 0
 6-311+G(2d,p)
 ****
 1  2  3  4  5  16  17  18  19  20  21  22  23  24  25 0
 3-21G
 ****
 27  28  30  31  32  35  37  42  43  44  45  46  47 0
 3-21G
 ****
 48  49 0
 3-21G
 ****


