%nproc=1
%NoSave
%Mem=1900MB
#P OB98/GEN NMR

erre ene a

0 1
  C       95.519     -51.639     166.572
  O       94.594     -52.524     167.206
  P       93.034     -52.201     167.013
  C       92.816     -53.011     164.560
  O       92.434     -53.206     165.914
  C       92.032     -53.924     163.608
  O       92.774     -55.141     163.329
  C       90.664     -54.341     164.153
  O       89.776     -54.459     163.037
  C       90.926     -55.728     164.711
  O       89.718     -56.475     164.829
  C       91.934     -56.263     163.680
  N       92.718     -57.393     164.175
  C       92.582     -58.607     163.499
  O       91.773     -58.714     162.573
  N       93.327     -59.682     163.909
  C       94.103     -59.570     164.942
  N       94.815     -60.673     165.301
  C       94.236     -58.324     165.723
  C       93.525     -57.288     165.284
  O       93.039     -50.783     166.270
  O       92.273     -52.141     168.299
  H       89.457     -56.777     163.931
  H       92.437     -50.165     166.726
  H       94.880     -58.283     166.588
  H       93.557     -56.332     165.788
  H       91.417     -56.588     162.768
  H       91.390     -55.656     165.703
  H       90.250     -53.641     164.884
  H       91.904     -53.394     162.658
  H       94.704     -61.507     164.736
  H       93.883     -53.208     164.445
  H       95.447     -60.700     166.088
  H       92.671     -51.957     164.300
  P       88.929     -53.169     162.600
  C       90.062     -51.228     161.356
  O       89.694     -52.594     161.313
  O       89.361     -52.107     163.726
  O       87.446     -53.290     162.508
  H       88.852     -51.284     163.611
  H       90.678     -51.004     160.479
  H       90.642     -51.017     162.258
  H       89.170     -50.599     161.325
  H       96.519     -51.962     166.776
  H       95.380     -50.648     166.950
  H       95.351     -51.645     165.515

 3  4  5  6  7  8  9  10  11  12  13  21  23  27  28  29  30  32 0
 6-311+G(2d,p)
 ****
 34  35 0
 6-311+G(2d,p)
 ****
 1  2  14  15  16  17  18  19  20  22  24  25  26 0
 3-21G
 ****
 31  33  36  37  38  39  40  41  42  43  44  45  46 0
 3-21G
 ****


