%nproc=1
%NoSave
%Mem=1900MB
#P OB98/GEN NMR

erre ene a

0 1
  C      -41.305      -0.506     -48.937
  O      -42.156       0.616     -48.818
  H      -41.789      -1.248     -49.578
  H      -41.127      -0.952     -47.955
  H      -40.355      -0.211     -49.391
  P      -41.657       1.806     -47.865
  C      -42.910       0.790     -45.827
  O      -41.671       1.232     -46.367
  C      -42.652      -0.091     -44.610
  O      -42.112      -1.365     -45.030
  C      -41.632       0.480     -43.635
  O      -42.184       1.490     -42.808
  C      -41.244      -0.769     -42.859
  O      -42.174      -1.042     -41.799
  C      -41.303      -1.866     -43.945
  N      -39.974      -2.269     -44.393
  C      -39.671      -3.619     -44.247
  O      -40.457      -4.438     -43.772
  N      -38.413      -3.994     -44.631
  C      -37.437      -3.163     -45.100
  O      -36.304      -3.551     -45.359
  C      -37.819      -1.748     -45.248
  C      -39.048      -1.370     -44.884
  O      -42.887       2.831     -47.892
  O      -40.376       2.452     -48.277
  H      -42.681       3.582     -48.479
  H      -42.109      -0.289     -41.180
  H      -38.170      -4.967     -44.522
  H      -37.070      -1.061     -45.625
  H      -39.345      -0.328     -44.964
  H      -41.814      -2.757     -43.558
  H      -40.261      -0.666     -42.398
  H      -40.751       0.848     -44.177
  H      -43.611      -0.275     -44.104
  H      -43.450       0.207     -46.582
  H      -43.513       1.662     -45.558
  P      -41.224       2.665     -42.288
  C      -40.290       1.264     -40.270
  O      -40.033       1.956     -41.479
  O      -42.131       3.325     -41.149
  O      -40.781       3.599     -43.363
  H      -42.669       2.674     -40.666
  H      -39.375       0.864     -39.886
  H      -40.978       0.466     -40.455
  H      -40.712       1.939     -39.555

 6  7  8  9  10  11  12  13  14  15  16  27  31  32  33  34  35 0
 6-311+G(2d,p)
 ****
 36  37 0
 6-311+G(2d,p)
 ****
 1  2  3  4  5  17  18  19  20  21  22  23  24  25 0
 3-21G
 ****
 26  28  29  30  38  39  40  41  42  43  44  45 0
 3-21G
 ****


