%nproc=1
%NoSave
%Mem=1900MB
#P OB98/GEN NMR

erre ene a

0 1
  C       97.043     702.486    -632.732
  O       98.093     702.152    -631.840
  P       99.030     703.295    -631.222
  C       99.106     701.851    -629.100
  O       99.865     702.622    -630.015
  C       99.984     701.259    -628.002
  O      100.731     700.140    -628.537
  C      101.014     702.240    -627.398
  O      101.147     701.894    -626.014
  C      102.287     701.897    -628.150
  O      103.465     702.325    -627.463
  C      102.130     700.376    -628.251
  N      106.688     698.307    -629.372
  C      106.186     698.820    -628.228
  N      104.965     699.374    -628.016
  C      104.233     699.370    -629.148
  C      104.621     698.907    -630.390
  C      105.893     698.328    -630.495
  N      106.418     697.773    -631.637
  N      103.611     699.122    -631.320
  C      102.649     699.709    -630.640
  N      102.953     699.821    -629.312
  O       98.339     704.566    -630.867
  O      100.142     703.526    -632.340
  H      104.237     702.037    -627.976
  H       99.975     704.386    -632.803
  H      106.843     698.778    -627.370
  H      101.719     700.070    -631.048
  H      102.385     699.862    -627.313
  H      102.280     702.375    -629.129
  H      100.724     703.297    -627.501
  H       99.328     700.849    -627.210
  H       98.634     701.035    -629.653
  H      107.283     697.267    -631.572
  H      105.776     697.544    -632.402
  H       98.310     702.470    -628.661
  P      101.394     703.043    -624.915
  C       99.629     702.563    -623.141
  O      100.984     702.409    -623.503
  O      100.811     704.370    -625.236
  O      103.009     703.118    -624.820
  H      103.269     703.961    -624.396
  H       99.459     703.569    -622.743
  H       99.390     701.822    -622.357
  H       98.965     702.408    -623.989
  H       96.534     701.594    -633.034
  H       97.449     702.974    -633.593
  H       96.354     703.141    -632.242

 3  4  5  6  7  8  9  10  11  12  22  25  29  30  31  32 0
 6-311+G(2d,p)
 ****
 33  36  37 0
 6-311+G(2d,p)
 ****
 1  2  13  14  15  16  17  18  19  20  21  23  24  26 0
 3-21G
 ****
 27  28  34  35  38  39  40  41  42  43  44  45  46  47  48 0
 3-21G
 ****


