%nproc=1
%NoSave
%Mem=1900MB
#P OB98/GEN NMR

erre ene a

0 1
  C       23.158      71.438      87.653
  O       23.144      72.678      86.975
  H       23.581      70.679      86.990
  H       22.134      71.150      87.904
  H       23.764      71.494      88.562
  P       22.941      73.998      87.864
  C       20.425      73.683      88.422
  O       21.759      73.674      88.906
  C       19.443      73.424      89.564
  O       19.403      74.606      90.422
  C       18.002      73.137      89.103
  O       17.424      72.157      89.977
  C       17.301      74.461      89.344
  O       15.895      74.310      89.496
  C       18.015      74.934      90.608
  N       14.553      78.561      90.352
  C       14.425      77.188      90.256
  N       13.195      76.703      89.990
  N       15.424      76.359      90.404
  C       16.598      76.975      90.684
  C       16.857      78.317      90.801
  C       15.748      79.230      90.617
  O       15.801      80.454      90.669
  N       18.193      78.543      91.031
  C       18.740      77.339      91.034
  N       17.812      76.355      90.825
  O       22.262      75.015      86.829
  O       24.185      74.561      88.464
  H       15.729      73.521      90.053
  H       22.947      75.578      86.421
  H       13.756      79.157      90.212
  H       19.792      77.130      91.161
  H       17.658      74.419      91.509
  H       17.490      75.143      88.505
  H       12.370      77.277      89.894
  H       17.928      72.794      88.066
  H       13.077      75.696      89.957
  H       19.824      72.598      90.176
  H       20.310      72.897      87.667
  H       20.218      74.651      87.953
  P       17.181      70.682      89.401
  C       14.618      70.752      88.947
  O       15.930      70.724      88.398
  O       16.609      69.887      90.669
  O       18.413      70.032      88.859
  H       16.917      68.962      90.644
  H       13.900      70.778      88.154
  H       14.506      71.623      89.559
  H       14.461      69.876      89.541

 6  7  8  9  10  11  12  13  14  15  26  29  33  34 0
 6-311+G(2d,p)
 ****
 36  38  39  40  41 0
 6-311+G(2d,p)
 ****
 1  2  3  4  5  16  17  18  19  20  21  22  23  24  25 0
 3-21G
 ****
 27  28  30  31  32  35  37  42  43  44  45  46  47 0
 3-21G
 ****
 48  49 0
 3-21G
 ****


