%nproc=1
%NoSave
%Mem=1900MB
#P OB98/GEN NMR

erre ene a

0 1
  C      308.710     -89.722    -326.340
  O      308.245     -88.585    -327.050
  P      306.906     -87.871    -326.528
  C      304.351     -88.332    -326.772
  O      305.673     -88.746    -327.078
  C      303.380     -88.793    -327.864
  O      303.653     -88.041    -329.076
  C      303.476     -90.279    -328.226
  O      302.164     -90.707    -328.598
  C      304.378     -90.279    -329.443
  O      304.238     -91.457    -330.235
  C      303.930     -88.993    -330.125
  N      305.888     -89.209    -334.788
  C      304.902     -89.985    -334.205
  N      304.316     -90.907    -335.002
  N      304.522     -89.866    -332.957
  C      305.186     -88.891    -332.292
  C      306.206     -88.087    -332.747
  C      306.595     -88.205    -334.135
  O      307.398     -87.480    -334.717
  N      306.693     -87.280    -331.752
  C      305.909     -87.540    -330.718
  N      304.955     -88.473    -331.013
  O      306.845     -86.537    -327.405
  O      306.847     -87.595    -325.057
  H      304.563     -92.211    -329.710
  H      307.256     -85.787    -326.933
  H      306.129     -89.337    -335.757
  H      305.984     -87.080    -329.745
  H      303.014     -89.126    -330.717
  H      305.429     -90.213    -329.127
  H      304.539     -91.031    -335.979
  H      303.863     -90.904    -327.412
  H      303.566     -91.464    -334.607
  H      302.362     -88.544    -327.546
  H      304.323     -87.235    -326.724
  H      304.056     -88.727    -325.796
  P      301.606     -92.066    -327.954
  C      302.306     -94.534    -328.305
  O      302.725     -93.191    -328.151
  O      300.460     -92.504    -328.992
  O      301.046     -91.925    -326.575
  H      299.745     -92.968    -328.518
  H      303.101     -95.093    -328.811
  H      301.392     -94.609    -328.897
  H      302.138     -94.979    -327.318
  H      309.604     -90.088    -326.799
  H      307.961     -90.486    -326.359
  H      308.916     -89.450    -325.326

 3  4  5  6  7  8  9  10  11  12  23  26  30  31 0
 6-311+G(2d,p)
 ****
 33  35  36  37  38 0
 6-311+G(2d,p)
 ****
 1  2  13  14  15  16  17  18  19  20  21  22  24  25 0
 3-21G
 ****
 27  28  29  32  34  39  40  41  42  43  44  45  46  47  48  49 0
 3-21G
 ****


