%nproc=1
%NoSave
%Mem=1900MB
#P OB98/GEN NMR

erre ene a

0 1
  C      938.122    -908.115      16.725
  O      937.632    -908.081      15.401
  H      937.422    -907.598      17.377
  H      939.093    -907.608      16.773
  H      938.237    -909.148      17.070
  P      938.324    -908.986      14.283
  C      936.232    -910.443      13.866
  O      937.576    -910.414      14.328
  C      935.447    -911.562      14.571
  O      935.997    -912.842      14.149
  C      935.521    -911.518      16.113
  O      934.284    -912.028      16.603
  C      936.663    -912.488      16.374
  O      936.714    -912.867      17.719
  C      936.318    -913.578      15.347
  N      937.395    -914.525      15.124
  C      937.638    -915.479      16.117
  O      936.984    -915.555      17.147
  N      938.689    -916.319      15.889
  C      939.516    -916.318      14.802
  O      940.425    -917.119      14.643
  C      939.226    -915.277      13.787
  C      938.201    -914.456      14.003
  O      939.819    -909.057      14.334
  O      937.815    -908.360      12.907
  H      938.499    -907.749      12.556
  H      937.068    -912.134      18.274
  H      938.863    -917.015      16.599
  H      939.862    -915.243      12.933
  H      937.965    -913.672      13.268
  H      935.424    -914.114      15.647
  H      937.624    -912.023      16.140
  H      935.699    -910.504      16.497
  H      934.402    -911.527      14.226
  H      936.245    -910.616      12.779
  H      935.763    -909.474      14.060
  P      933.490    -911.369      17.855
  C      931.048    -911.577      17.027
  O      932.117    -910.684      17.294
  O      934.325    -910.452      18.674
  O      932.973    -912.594      18.728
  H      933.000    -912.367      19.672
  H      930.204    -911.026      16.667
  H      930.780    -912.092      17.926
  H      931.353    -912.287      16.287

 6  7  8  9  10  11  12  13  14  15  16  27  31  32  33  34  35 0
 6-311+G(2d,p)
 ****
 36  37 0
 6-311+G(2d,p)
 ****
 1  2  3  4  5  17  18  19  20  21  22  23  24  25 0
 3-21G
 ****
 26  28  29  30  38  39  40  41  42  43  44  45 0
 3-21G
 ****


