%nproc=1
%NoSave
%Mem=1900MB
#P OB98/GEN NMR

erre ene a

0 1
  C      114.270     -41.440     -87.965
  O      113.312     -42.461     -88.141
  H      115.248     -41.819     -88.274
  H      114.324     -41.157     -86.911
  H      114.021     -40.567     -88.574
  P      111.772     -42.079     -87.899
  C      110.273     -42.265     -90.010
  O      110.913     -42.947     -88.943
  C      109.106     -43.095     -90.548
  O      108.202     -42.218     -91.269
  C      109.535     -44.216     -91.499
  O      108.710     -45.359     -91.259
  C      109.230     -43.653     -92.876
  O      109.012     -44.673     -93.851
  C      108.011     -42.767     -92.587
  N      107.860     -41.721     -93.594
  C      107.380     -42.117     -94.845
  O      107.116     -43.302     -95.061
  N      107.266     -41.181     -95.839
  C      107.677     -39.969     -95.630
  N      107.566     -39.092     -96.665
  C      108.254     -39.521     -94.348
  C      108.307     -40.437     -93.381
  O      111.663     -40.593     -88.482
  O      111.305     -42.171     -86.485
  H      108.686     -44.248     -94.673
  H      110.999     -40.070     -87.995
  H      108.607     -38.507     -94.230
  H      108.721     -40.202     -92.407
  H      107.093     -43.370     -92.566
  H      110.074     -43.040     -93.215
  H      110.586     -44.494     -91.390
  H      108.546     -43.499     -89.695
  H      107.182     -39.443     -97.535
  H      110.996     -42.107     -90.817
  H      107.894     -38.139     -96.630
  H      109.917     -41.291     -89.658
  P      109.333     -46.516     -90.340
  C      108.856     -45.488     -88.001
  O      108.553     -46.514     -88.939
  O      110.784     -45.952     -89.969
  O      109.413     -47.844     -91.019
  H      111.469     -46.457     -90.446
  H      108.259     -45.620     -87.123
  H      108.644     -44.533     -88.436
  H      109.892     -45.539     -87.739

 6  7  8  9  10  11  12  13  14  15  16  26  30  31  32  33  35 0
 6-311+G(2d,p)
 ****
 37  38 0
 6-311+G(2d,p)
 ****
 1  2  3  4  5  17  18  19  20  21  22  23  24  25 0
 3-21G
 ****
 27  28  29  34  36  39  40  41  42  43  44  45  46 0
 3-21G
 ****


