%nproc=1
%NoSave
%Mem=1900MB
#P OB98/GEN NMR

erre ene a

0 1
  C      146.753     -35.562    -674.689
  O      147.072     -36.909    -674.327
  P      147.996     -37.124    -673.043
  C      147.164     -39.579    -672.943
  O      148.294     -38.703    -672.969
  C      147.480     -40.876    -673.671
  O      148.713     -41.415    -673.179
  C      146.441     -41.979    -673.483
  O      145.327     -41.806    -674.348
  C      147.251     -43.210    -673.882
  O      147.265     -43.348    -675.310
  C      148.664     -42.864    -673.342
  N      149.619     -47.235    -670.975
  C      149.352     -46.996    -672.305
  N      149.382     -48.064    -673.137
  N      149.096     -45.814    -672.786
  C      149.141     -44.834    -671.865
  C      149.381     -44.938    -670.498
  C      149.622     -46.267    -669.967
  O      149.808     -46.552    -668.794
  N      149.361     -43.723    -669.873
  C      149.147     -42.864    -670.852
  N      148.970     -43.494    -672.073
  O      146.994     -36.870    -671.810
  O      149.199     -36.230    -672.961
  H      147.778     -44.142    -675.520
  H      147.499     -36.586    -671.028
  H      149.831     -48.172    -670.663
  H      149.104     -41.785    -670.732
  H      149.435     -43.134    -674.072
  H      146.827     -44.145    -673.473
  H      149.702     -48.985    -672.839
  H      146.139     -42.062    -672.438
  H      149.227     -47.900    -674.121
  H      147.612     -40.645    -674.742
  H      146.310     -39.084    -673.439
  H      146.888     -39.769    -671.892
  P      143.873     -41.921    -673.661
  C      143.120     -40.994    -675.973
  O      142.833     -41.853    -674.884
  O      143.708     -40.529    -672.908
  O      143.718     -43.087    -672.728
  H      143.087     -40.614    -672.160
  H      144.189     -40.964    -676.188
  H      142.772     -39.986    -675.740
  H      142.591     -41.352    -676.854
  H      146.132     -35.564    -675.561
  H      147.655     -35.025    -674.895
  H      146.233     -35.089    -673.882

 3  4  5  6  7  8  9  10  11  12  23  26  30  31  33  0
 6-311+G(2d,p)
 ****
 35  36  37  38 0
 6-311+G(2d,p)
 ****
 1  2  13  14  15  16  17  18  19  20  21  22  24  25  27  28  29 0
 3-21G
 ****
 32  34  39  40  41  42  43  44  45  46  47  48  49 0
 3-21G
 ****


