%nproc=1
%NoSave
%Mem=1900MB
#P OB98/GEN NMR

erre ene a

0 1
  C     -207.780     133.273     388.516
  O     -208.215     133.321     387.151
  P     -207.193     132.741     386.055
  C     -207.660     134.628     384.320
  O     -207.696     133.235     384.602
  C     -208.489     134.921     383.068
  O     -209.874     135.187     383.382
  C     -208.012     136.157     382.307
  O     -206.818     135.886     381.586
  C     -209.243     136.443     381.434
  O     -209.249     135.565     380.289
  C     -210.396     136.088     382.381
  N     -213.455     140.131     381.735
  C     -213.079     139.156     380.888
  N     -212.258     138.113     381.134
  C     -211.825     138.135     382.419
  C     -212.143     139.059     383.396
  C     -212.999     140.108     383.008
  N     -213.395     141.112     383.878
  N     -211.522     138.752     384.582
  C     -210.816     137.666     384.321
  N     -210.985     137.246     383.024
  O     -207.505     131.173     386.048
  O     -205.760     133.031     386.356
  H     -208.445     135.770     379.761
  H     -206.770     130.693     386.466
  H     -213.471     139.223     379.876
  H     -210.181     137.150     385.029
  H     -211.202     135.566     381.857
  H     -209.258     137.476     381.059
  H     -207.850     136.991     383.000
  H     -208.447     134.040     382.403
  H     -206.633     134.962     384.167
  H     -213.947     141.870     383.496
  H     -212.984     141.151     384.796
  H     -208.058     135.164     385.185
  P     -205.771     137.088     381.391
  C     -205.316     137.335     378.879
  O     -204.944     136.667     380.071
  O     -204.728     136.797     382.566
  O     -206.375     138.458     381.389
  H     -204.484     135.842     382.613
  H     -204.659     136.981     378.073
  H     -205.187     138.414     378.987
  H     -206.352     137.107     378.622
  H     -208.540     133.684     389.147
  H     -206.880     133.842     388.624
  H     -207.595     132.257     388.796

 3  4  5  6  7  8  9  10  11  12  22  25  29  30  31  32 0
 6-311+G(2d,p)
 ****
 33  36  37 0
 6-311+G(2d,p)
 ****
 1  2  13  14  15  16  17  18  19  20  21  23  24  26 0
 3-21G
 ****
 27  28  34  35  38  39  40  41  42  43  44  45  46  47  48 0
 3-21G
 ****


