%nproc=1
%NoSave
%Mem=1900MB
#P OB98/GEN NMR

erre ene a

0 1
  C      -79.275     -28.705     122.228
  O      -78.543     -27.693     122.894
  H      -79.639     -29.420     122.969
  H      -78.630     -29.230     121.516
  H      -80.132     -28.271     121.704
  P      -77.933     -26.529     121.969
  C      -75.704     -27.835     121.606
  O      -76.340     -26.659     122.092
  C      -74.188     -27.736     121.789
  O      -73.685     -26.661     120.931
  C      -73.742     -27.394     123.222
  O      -72.443     -27.965     123.433
  C      -73.630     -25.880     123.160
  O      -72.931     -25.377     124.274
  C      -72.986     -25.733     121.784
  N      -71.057     -20.995     121.983
  C      -70.704     -22.139     122.613
  N      -71.255     -23.360     122.501
  C      -72.266     -23.350     121.610
  C      -72.736     -22.266     120.885
  C      -72.084     -21.040     121.100
  N      -72.452     -19.874     120.469
  N      -73.794     -22.643     120.075
  C      -73.956     -23.929     120.306
  N      -73.062     -24.397     121.234
  O      -78.272     -25.197     122.791
  O      -78.457     -26.478     120.574
  H      -72.952     -24.395     124.280
  H      -79.099     -24.801     122.454
  H      -69.866     -22.055     123.301
  H      -74.707     -24.566     119.845
  H      -71.926     -26.023     121.797
  H      -74.625     -25.414     123.177
  H      -74.436     -27.763     123.986
  H      -73.720     -28.662     121.433
  H      -75.947     -27.953     120.542
  H      -76.078     -28.707     122.159
  H      -71.944     -19.027     120.693
  H      -73.225     -19.884     119.819
  P      -72.330     -29.397     124.162
  C      -71.859     -28.411     126.546
  O      -71.415     -29.227     125.476
  O      -71.341     -30.190     123.173
  O      -73.608     -30.137     124.345
  H      -71.526     -31.149     123.235
  H      -71.127     -28.417     127.327
  H      -72.786     -28.790     126.923
  H      -71.999     -27.409     126.196

 6  7  8  9  10  11  12  13  14  15  25  28  32  33  34  35 0
 6-311+G(2d,p)
 ****
 36  37  40 0
 6-311+G(2d,p)
 ****
 1  2  3  4  5  16  17  18  19  20  21  22  23  24 0
 3-21G
 ****
 26  27  29  30  31  38  39 41  42  43  44  45  46  47  48 0
 3-21G
 ****


