%nproc=1
%NoSave
%Mem=1900MB
#P OB98/GEN NMR

erre ene a

0 1
  C      -27.083      96.793      98.721
  O      -26.011      96.651      99.652
  P      -25.390      97.968     100.322
  C      -23.699      99.805      99.689
  O      -24.475      98.704      99.230
  C      -22.675     100.227      98.634
  O      -21.605      99.269      98.518
  C      -23.266     100.344      97.239
  O      -24.053     101.515      97.116
  C      -22.009     100.313      96.379
  O      -21.397     101.611      96.315
  C      -21.102      99.339      97.165
  N      -21.015      98.020      96.558
  C      -20.297      97.940      95.360
  O      -19.817      98.955      94.857
  N      -20.157      96.714      94.757
  C      -20.694      95.664      95.299
  N      -20.520      94.477      94.660
  C      -21.468      95.707      96.555
  C      -21.594      96.906      97.121
  O      -24.756      97.775     101.660
  O      -26.661      98.946     100.423
  H      -21.354     101.935      97.237
  H      -26.545      99.535     101.194
  H      -21.891      94.803      96.969
  H      -22.150      97.029      98.043
  H      -20.084      99.743      97.234
  H      -22.227     100.008      95.352
  H      -23.881      99.460      97.023
  H      -22.248     101.192      98.939
  H      -19.995      94.476      93.794
  H      -23.187      99.530     100.615
  H      -20.855      93.598      95.027
  H      -24.374     100.633      99.937
  P      -25.645     101.338      97.054
  C      -27.407     100.808      95.228
  O      -26.044     101.029      95.534
  O      -26.181     102.832      97.281
  O      -26.213     100.401      98.071
  H      -27.022     102.807      97.773
  H      -27.545     100.930      94.147
  H      -28.054     101.520      95.746
  H      -27.687      99.789      95.505
  H      -27.380      95.827      98.369
  H      -26.760      97.390      97.894
  H      -27.912      97.268      99.202

 3  4  5  6  7  8  9  10  11  12  13  23  27  28  29  30  32 0
 6-311+G(2d,p)
 ****
 34  35 0
 6-311+G(2d,p)
 ****
 1  2  14  15  16  17  18  19  20  21  22  24  25  26 0
 3-21G
 ****
 31  33  36  37  38  39  40  41  42  43  44  45  46 0
 3-21G
 ****


