%nproc=1
%NoSave
%Mem=1900MB
#P OB98/GEN NMR

erre ene a

0 1
  C     -749.090     418.069    -673.492
  O     -749.194     418.706    -672.233
  H     -750.023     417.539    -673.696
  H     -748.266     417.350    -673.477
  H     -748.923     418.811    -674.288
  P     -747.992     419.685    -671.822
  C     -749.923     421.083    -670.708
  O     -748.563     420.671    -670.684
  C     -750.222     421.939    -669.474
  O     -749.384     423.114    -669.437
  C     -751.640     422.504    -669.463
  O     -752.624     421.524    -669.213
  C     -751.504     423.550    -668.359
  O     -751.567     422.930    -667.061
  C     -750.082     424.104    -668.642
  N     -750.117     425.401    -669.288
  C     -749.201     426.347    -668.807
  O     -748.428     426.057    -667.897
  N     -749.205     427.611    -669.346
  C     -750.031     427.889    -670.307
  N     -750.001     429.169    -670.800
  C     -750.987     426.919    -670.873
  C     -750.985     425.712    -670.316
  O     -747.872     420.651    -673.097
  O     -746.720     419.007    -671.433
  H     -751.573     423.663    -666.414
  H     -748.708     421.071    -673.345
  H     -751.659     427.203    -671.679
  H     -751.651     424.942    -670.668
  H     -749.519     424.207    -667.699
  H     -752.300     424.298    -668.396
  H     -751.846     423.039    -670.397
  H     -750.017     421.343    -668.587
  H     -749.345     429.818    -670.375
  H     -750.589     420.220    -670.742
  H     -750.617     429.512    -671.525
  H     -750.071     421.666    -671.624
  P     -753.642     421.081    -670.351
  C     -754.893     419.917    -668.434
  O     -755.019     420.707    -669.605
  O     -753.141     420.022    -671.295
  O     -754.018     422.463    -671.075
  H     -754.427     423.120    -670.487
  H     -755.863     419.730    -668.024
  H     -754.296     420.438    -667.715
  H     -754.425     418.987    -668.680

 6  7  8  9  10  11  12  13  14  15  16  26  30  31  32  33  35 0
 6-311+G(2d,p)
 ****
 37  38 0
 6-311+G(2d,p)
 ****
 1  2  3  4  5  17  18  19  20  21  22  23  24  25 0
 3-21G
 ****
 27  28  29  34  36  39  40  41  42  43  44  45  46 0
 3-21G
 ****


