%nproc=1
%NoSave
%Mem=1900MB
#P OB98/GEN NMR

erre ene a

0 1
  C      597.372     -51.096    -895.710
  O      596.761     -51.130    -896.980
  H      597.154     -52.034    -895.190
  H      596.967     -50.261    -895.130
  H      598.462     -50.995    -895.810
  P      597.130     -49.944    -898.000
  C      597.689     -47.483    -897.380
  O      596.786     -48.567    -897.240
  C      597.486     -46.479    -896.250
  O      597.727     -47.104    -894.970
  C      598.407     -45.263    -896.310
  O      597.911     -44.268    -897.220
  C      598.342     -44.786    -894.880
  O      597.103     -44.093    -894.650
  C      598.350     -46.117    -894.100
  N      602.083     -45.755    -890.687
  C      600.862     -45.107    -890.734
  N      600.591     -44.241    -889.750
  N      599.975     -45.304    -891.680
  C      600.382     -46.194    -892.620
  C      601.562     -46.893    -892.680
  C      602.521     -46.678    -891.623
  O      603.617     -47.239    -891.519
  N      601.610     -47.703    -893.770
  C      600.461     -47.496    -894.390
  N      599.680     -46.573    -893.740
  O      595.995     -50.043    -899.120
  O      598.501     -50.016    -898.600
  H      596.418     -44.544    -895.180
  H      596.383     -49.818    -900.000
  H      602.727     -45.556    -889.947
  H      600.153     -47.977    -895.310
  H      597.766     -46.072    -893.180
  H      599.145     -44.103    -894.620
  H      601.254     -44.006    -889.015
  H      599.440     -45.557    -896.560
  H      599.689     -43.784    -889.752
  H      596.433     -46.161    -896.260
  H      597.515     -46.982    -898.350
  H      598.707     -47.867    -897.360
  P      598.926     -43.114    -897.670
  C      599.877     -41.036    -896.410
  O      598.790     -41.954    -896.570
  O      598.194     -42.484    -898.960
  O      600.313     -43.576    -897.970
  H      598.855     -42.035    -899.530
  H      599.636     -40.328    -895.645
  H      600.047     -40.521    -897.332
  H      600.760     -41.573    -896.134

 6  7  8  9  10  11  12  13  14  15  26  29  33  34 0
 6-311+G(2d,p)
 ****
 36  38  39  40  41 0
 6-311+G(2d,p)
 ****
 1  2  3  4  5  16  17  18  19  20  21  22  23  24  25 0
 3-21G
 ****
 27  28  30  31  32  35  37  42  43  44  45  46  47 0
 3-21G
 ****
 48  49 0
 3-21G
 ****


