%nproc=1
%NoSave
%Mem=1900MB
#P OB98/GEN NMR

erre ene a

0 1
  C      324.045     186.339     255.561
  O      323.850     185.305     256.512
  P      323.587     183.788     256.046
  C      321.006     183.895     256.166
  O      322.157     183.826     255.328
  C      320.104     182.684     255.914
  O      319.936     182.493     254.498
  C      320.652     181.369     256.453
  O      320.491     181.284     257.861
  C      319.843     180.369     255.633
  O      318.531     180.212     256.191
  C      319.755     181.077     254.266
  N      320.723     180.570     253.297
  C      320.550     179.247     252.875
  O      319.621     178.559     253.306
  N      321.421     178.731     251.947
  C      322.393     179.467     251.494
  N      323.183     178.931     250.526
  C      322.641     180.850     251.951
  C      321.774     181.332     252.837
  O      323.720     182.772     257.125
  O      324.582     183.566     254.820
  H      318.128     179.440     255.744
  H      325.480     183.246     255.092
  H      323.473     181.412     251.557
  H      321.877     182.339     253.208
  H      318.745     180.970     253.850
  H      320.305     179.376     255.577
  H      321.720     181.273     256.205
  H      319.121     182.898     256.354
  H      322.874     178.052     250.119
  H      320.454     184.808     255.925
  H      323.754     179.511     249.927
  H      321.323     183.938     257.214
  P      321.736     180.739     258.711
  C      320.645     178.389     258.526
  O      321.828     179.166     258.399
  O      321.200     180.812     260.220
  O      322.997     181.506     258.519
  H      321.566     181.599     260.674
  H      320.820     177.417     258.054
  H      319.805     178.876     258.028
  H      320.418     178.231     259.584
  H      324.203     187.267     256.070
  H      323.179     186.418     254.937
  H      324.900     186.113     254.958

 3  4  5  6  7  8  9  10  11  12  13  23  27  28  29  30  32 0
 6-311+G(2d,p)
 ****
 34  35 0
 6-311+G(2d,p)
 ****
 1  2  14  15  16  17  18  19  20  21  22  24  25  26 0
 3-21G
 ****
 31  33  36  37  38  39  40  41  42  43  44  45  46 0
 3-21G
 ****


