%nproc=1
%NoSave
%Mem=1900MB
#P OB98/GEN NMR

erre ene a

0 1
  C     -391.342     153.191    -217.083
  O     -390.732     154.463    -216.951
  P     -390.616     155.398    -218.247
  C     -392.490     157.125    -217.703
  O     -392.068     156.038    -218.515
  C     -393.352     158.100    -218.512
  O     -394.569     157.415    -218.943
  C     -393.781     159.347    -217.735
  O     -393.844     160.441    -218.670
  C     -395.187     158.988    -217.282
  O     -395.969     160.119    -216.930
  C     -395.683     158.229    -218.514
  N     -396.871     157.423    -218.251
  C     -398.028     157.728    -218.961
  O     -398.101     158.637    -219.796
  N     -399.142     156.997    -218.648
  C     -399.233     156.072    -217.648
  O     -400.295     155.536    -217.335
  C     -397.987     155.789    -216.924
  C     -396.877     156.464    -217.251
  O     -390.435     154.346    -219.443
  O     -389.500     156.391    -218.201
  H     -396.884     159.816    -216.799
  H     -389.500     154.279    -219.700
  H     -399.983     157.201    -219.162
  H     -398.022     155.040    -216.139
  H     -395.943     156.285    -216.725
  H     -395.898     158.933    -219.333
  H     -395.127     158.333    -216.403
  H     -393.114     159.601    -216.899
  H     -392.799     158.381    -219.414
  H     -391.611     157.652    -217.323
  H     -393.048     156.744    -216.839
  P     -393.593     161.923    -218.105
  C     -390.981     161.892    -218.012
  O     -392.204     161.892    -217.310
  O     -394.704     161.999    -216.951
  O     -393.743     162.995    -219.146
  H     -394.748     161.185    -216.424
  H     -391.036     162.481    -218.931
  H     -390.708     160.864    -218.263
  H     -390.198     162.317    -217.371
  H     -391.341     152.695    -216.135
  H     -390.796     152.605    -217.792
  H     -392.350     153.312    -217.421

 3  4  5  6  7  8  9  10  11  12  13  23  28  29  30  31  32 0
 6-311+G(2d,p)
 ****
 33  34 0
 6-311+G(2d,p)
 ****
 1  2  14  15  16  17  18  19  20  21  22  24  25  26 0
 3-21G
 ****
 27  35  36  37  38  39  40  41  42  43  44  45 0
 3-21G
 ****


