%nproc=1
%NoSave
%Mem=1900MB
#P OB98/GEN NMR

erre ene a

0 1
  C     -275.925     -80.205    -199.809
  O     -274.549     -80.512    -200.055
  P     -273.868     -81.635    -199.127
  C     -272.206     -82.630    -200.888
  O     -272.388     -81.851    -199.716
  C     -272.394     -81.771    -202.146
  O     -271.598     -80.553    -202.035
  C     -271.995     -82.468    -203.449
  O     -272.928     -82.038    -204.453
  C     -270.619     -81.900    -203.740
  O     -270.267     -82.010    -205.110
  C     -270.793     -80.463    -203.229
  N     -269.518     -79.797    -202.969
  C     -269.068     -78.905    -203.935
  O     -269.649     -78.728    -205.006
  N     -267.895     -78.256    -203.651
  C     -267.110     -78.469    -202.554
  O     -266.068     -77.859    -202.346
  C     -267.581     -79.507    -201.620
  C     -268.746     -80.113    -201.869
  O     -274.668     -82.942    -199.576
  O     -273.939     -81.311    -197.672
  H     -274.884     -82.961    -200.524
  H     -270.712     -81.298    -205.612
  H     -267.566     -77.585    -204.323
  H     -266.954     -79.745    -200.769
  H     -269.109     -80.896    -201.218
  H     -271.355     -79.865    -203.952
  H     -269.863     -82.431    -203.145
  H     -272.012     -83.558    -203.375
  H     -273.446     -81.464    -202.195
  H     -272.936     -83.445    -200.908
  H     -271.213     -83.087    -200.865
  P     -274.065     -83.075    -204.936
  C     -275.877     -81.239    -205.351
  O     -275.073     -82.266    -205.880
  O     -274.892     -83.237    -203.572
  O     -273.546     -84.376    -205.456
  H     -275.095     -82.387    -203.149
  H     -276.304     -80.664    -206.182
  H     -275.293     -80.557    -204.727
  H     -276.695     -81.668    -204.766
  H     -276.249     -79.448    -200.492
  H     -276.038     -79.852    -198.805
  H     -276.517     -81.086    -199.946

 3  4  5  6  7  8  9  10  11  12  13  24  28  29  30  31  32 0
 6-311+G(2d,p)
 ****
 33  34 0
 6-311+G(2d,p)
 ****
 1  2  14  15  16  17  18  19  20  21  22  23  25  26  27 0
 3-21G
 ****
 35  36  37  38  39  40  41  42  43  44  45 0
 3-21G
 ****


