%nproc=1
%NoSave
%Mem=1900MB
#P OB98/GEN NMR

erre ene a

0 1
  C      550.017     294.464    -259.442
  O      549.276     293.378    -259.991
  P      548.236     292.478    -259.173
  C      546.016     293.690    -259.860
  O      546.826     292.529    -259.930
  C      544.620     293.425    -259.259
  O      543.996     294.689    -258.891
  C      543.704     292.778    -260.301
  O      543.756     291.377    -260.513
  C      542.318     293.307    -259.974
  O      541.583     292.428    -259.120
  C      542.609     294.627    -259.250
  N      539.211     298.361    -260.128
  C      539.147     297.310    -259.234
  N      538.004     297.212    -258.512
  N      540.097     296.430    -259.075
  C      541.139     296.603    -259.922
  C      541.312     297.591    -260.860
  C      540.275     298.599    -260.994
  O      540.296     299.550    -261.761
  N      542.489     297.422    -261.556
  C      543.018     296.325    -261.045
  N      542.231     295.790    -260.048
  O      548.223     292.693    -257.697
  O      548.757     290.977    -259.439
  H      540.637     292.660    -259.190
  H      548.551     290.461    -258.633
  H      538.460     299.026    -260.199
  H      543.947     295.883    -261.355
  H      542.035     294.693    -258.313
  H      541.724     293.424    -260.892
  H      537.189     297.782    -258.670
  H      543.966     293.220    -261.268
  H      537.864     296.323    -258.019
  H      544.701     292.851    -258.335
  H      545.926     294.086    -260.876
  H      546.524     294.469    -259.278
  P      543.688     290.634    -261.932
  C      546.115     290.831    -262.732
  O      545.118     289.967    -262.208
  O      543.652     291.833    -263.000
  O      542.519     289.725    -262.116
  H      543.350     291.507    -263.869
  H      546.915     290.220    -263.156
  H      546.531     291.446    -261.929
  H      545.708     291.480    -263.509
  H      550.637     294.893    -260.202
  H      550.630     294.108    -258.640
  H      549.341     295.206    -259.072

 3  4  5  6  7  8  9  10  11  12  23  26  30  31 0
 6-311+G(2d,p)
 ****
 33  35  36  37  38 0
 6-311+G(2d,p)
 ****
 1  2  13  14  15  16  17  18  19  20  21  22  24  25 0
 3-21G
 ****
 27  28  29  32  34  39  40  41  42  43  44  45  46  47  48  49 0
 3-21G
 ****


