%nproc=1
%NoSave
%Mem=1900MB
#P OB98/GEN NMR

erre ene a

0 1
  C       -3.612     431.783    -292.794
  O       -4.542     431.763    -291.726
  P       -6.042     432.249    -292.033
  C       -5.173     434.598    -291.320
  O       -5.972     433.840    -292.220
  C       -4.531     435.779    -292.042
  O       -3.741     435.320    -293.160
  C       -5.526     436.767    -292.636
  O       -6.028     437.676    -291.672
  C       -4.655     437.489    -293.649
  O       -3.854     438.485    -292.990
  C       -3.762     436.353    -294.176
  N       -4.413     437.232    -299.121
  C       -3.705     437.955    -298.179
  N       -3.139     439.106    -298.605
  N       -3.563     437.584    -296.934
  C       -4.183     436.414    -296.646
  C       -4.909     435.607    -297.495
  C       -5.077     436.038    -298.873
  O       -5.732     435.466    -299.737
  N       -5.389     434.498    -296.847
  C       -4.949     434.628    -295.609
  N       -4.253     435.794    -295.425
  O       -6.780     432.081    -290.620
  O       -6.729     431.495    -293.124
  H       -3.222     438.825    -293.654
  H       -7.748     432.081    -290.749
  H       -4.501     437.566    -300.065
  H       -5.123     433.916    -294.812
  H       -2.730     436.682    -294.334
  H       -5.233     438.003    -294.421
  H       -3.268     439.480    -299.530
  H       -6.340     436.245    -293.160
  H       -2.669     439.690    -297.920
  H       -3.857     436.285    -291.336
  H       -4.398     433.955    -290.903
  H       -5.801     434.956    -290.494
  P       -7.584     437.560    -291.301
  C       -8.205     439.774    -292.503
  O       -8.356     438.369    -292.446
  O       -7.722     438.494    -290.007
  O       -8.056     436.164    -291.048
  H       -8.467     438.200    -289.454
  H       -8.572     440.132    -293.475
  H       -7.163     440.070    -292.392
  H       -8.808     440.244    -291.711
  H       -2.662     431.436    -292.446
  H       -3.513     432.783    -293.162
  H       -3.958     431.146    -293.581

 3  4  5  6  7  8  9  10  11  12  23  26  30  31 0
 6-311+G(2d,p)
 ****
 33  35  36  37  38 0
 6-311+G(2d,p)
 ****
 1  2  13  14  15  16  17  18  19  20  21  22  24  25 0
 3-21G
 ****
 27  28  29  32  34  39  40  41  42  43  44  45  46  47  48  49 0
 3-21G
 ****


