%nproc=1
%NoSave
%Mem=1900MB
#P OB98/GEN NMR

erre ene a

0 1
  C     -218.539    -337.525     302.612
  O     -218.315    -336.798     301.424
  H     -218.914    -338.527     302.382
  H     -217.593    -337.616     303.154
  H     -219.259    -336.998     303.245
  P     -219.568    -336.647     300.432
  C     -218.241    -334.702     299.349
  O     -219.034    -335.862     299.138
  C     -217.892    -334.054     298.016
  O     -217.139    -334.971     297.195
  C     -219.091    -333.649     297.168
  O     -219.673    -332.428     297.614
  C     -218.432    -333.490     295.805
  O     -217.780    -332.207     295.727
  C     -217.384    -334.613     295.810
  N     -218.786    -336.524     291.251
  C     -218.432    -335.273     291.633
  N     -218.084    -334.836     292.862
  C     -218.101    -335.846     293.751
  C     -218.433    -337.170     293.507
  C     -218.799    -337.500     292.190
  N     -219.169    -338.772     291.810
  N     -218.330    -337.921     294.652
  C     -217.941    -337.069     295.580
  N     -217.792    -335.802     295.084
  O     -220.496    -335.567     301.165
  O     -220.315    -337.908     300.150
  H     -218.436    -331.544     296.020
  H     -221.434    -335.794     301.009
  H     -218.432    -334.521     290.848
  H     -217.740    -337.329     296.618
  H     -216.428    -334.269     295.396
  H     -219.144    -333.549     294.975
  H     -219.834    -334.453     297.120
  H     -217.249    -333.186     298.220
  H     -217.314    -334.984     299.865
  H     -219.223    -338.984     290.828
  H     -219.169    -339.498     292.519
  H     -218.797    -333.998     299.978
  P     -221.276    -332.335     297.622
  C     -221.360    -330.427     299.382
  O     -221.608    -330.821     298.039
  O     -221.686    -333.175     298.922
  O     -221.946    -332.847     296.398
  H     -222.592    -333.519     298.824
  H     -221.628    -329.399     299.507
  H     -220.321    -330.554     299.605
  H     -221.944    -331.031     300.045

 6  7  8  9  10  11  12  13  14  15  25  28  32  33  34  35 0
 6-311+G(2d,p)
 ****
 36  39  40 0
 6-311+G(2d,p)
 ****
 1  2  3  4  5  16  17  18  19  20  21  22  23  24 0
 3-21G
 ****
 26  27  29  30  31  37  38  41  42  43  44  45  46  47  48 0
 3-21G
 ****


