%nproc=1
%NoSave
%Mem=1900MB
#P OB98/GEN NMR

erre ene a

0 1
  C     -179.403     398.563    -477.277
  O     -180.547     398.623    -478.102
  P     -181.255     400.018    -478.440
  C     -179.484     400.465    -480.265
  O     -180.127     400.964    -479.099
  C     -179.297     401.599    -481.294
  O     -178.326     402.555    -480.762
  C     -178.764     401.089    -482.651
  O     -179.541     401.498    -483.779
  C     -177.318     401.564    -482.650
  O     -176.735     401.647    -483.936
  C     -177.427     402.866    -481.841
  N     -176.129     403.338    -481.365
  C     -175.565     404.426    -482.019
  O     -176.092     405.019    -482.964
  N     -174.315     404.808    -481.607
  C     -173.542     404.144    -480.706
  O     -172.385     404.476    -480.447
  C     -174.171     402.968    -480.065
  C     -175.418     402.638    -480.403
  O     -182.009     400.643    -477.308
  O     -182.169     399.664    -479.715
  H     -177.301     402.208    -484.488
  H     -181.678     399.327    -480.489
  H     -173.895     405.594    -482.081
  H     -173.571     402.420    -479.356
  H     -175.915     401.774    -479.945
  H     -177.879     403.660    -482.436
  H     -176.733     400.832    -482.075
  H     -178.789     399.995    -482.697
  H     -180.264     402.099    -481.406
  H     -180.109     399.678    -480.703
  H     -178.522     400.009    -479.996
  P     -179.684     400.681    -485.153
  C     -181.806     399.341    -484.461
  O     -180.437     399.300    -484.836
  O     -178.414     400.539    -485.941
  O     -180.768     401.512    -485.982
  H     -180.605     401.401    -486.941
  H     -182.019     398.470    -483.823
  H     -182.431     399.269    -485.362
  H     -182.050     400.253    -483.914
  H     -179.088     397.545    -477.177
  H     -179.638     398.960    -476.312
  H     -178.615     399.138    -477.717

 3  4  5  6  7  8  9  10  11  12  13  23  28  29  30  31  32 0
 6-311+G(2d,p)
 ****
 33  34 0
 6-311+G(2d,p)
 ****
 1  2  14  15  16  17  18  19  20  21  22  24  25  26  27 0
 3-21G
 ****
 35  36  37  38  39  40  41  42  43  44  45 0
 3-21G
 ****


