%nproc=1
%NoSave
%Mem=1900MB
#P OB98/GEN NMR

erre ene a

0 1
  C      209.926    -178.446    -125.799
  O      210.441    -178.949    -124.589
  P      209.838    -180.209    -123.824
  C      209.800    -179.020    -121.495
  O      210.258    -180.116    -122.280
  C      209.873    -179.350    -119.994
  O      208.925    -180.413    -119.711
  C      211.266    -179.876    -119.600
  O      211.743    -179.367    -118.362
  C      211.105    -181.384    -119.718
  O      212.081    -182.117    -118.991
  C      209.656    -181.576    -119.279
  N      209.458    -186.659    -119.295
  C      210.115    -185.817    -118.419
  N      210.969    -186.409    -117.555
  N      209.969    -184.517    -118.423
  C      209.174    -184.063    -119.416
  C      208.472    -184.799    -120.344
  C      208.612    -186.235    -120.307
  O      208.140    -187.011    -121.139
  N      207.818    -183.998    -121.246
  C      208.158    -182.774    -120.890
  N      209.004    -182.767    -119.803
  O      209.958    -181.534    -124.507
  O      208.266    -179.835    -123.768
  H      211.853    -183.066    -119.071
  H      207.767    -180.674    -123.836
  H      209.672    -187.649    -119.296
  H      207.845    -181.867    -121.392
  H      209.574    -181.648    -118.193
  H      211.232    -181.646    -120.776
  H      211.209    -187.387    -117.625
  H      212.016    -179.537    -120.319
  H      211.636    -185.805    -117.079
  H      209.571    -178.472    -119.415
  H      208.761    -178.841    -121.791
  H      210.375    -178.117    -121.719
  P      213.080    -178.541    -118.068
  C      214.724    -180.295    -117.173
  O      213.851    -179.234    -116.845
  O      212.576    -177.160    -117.433
  O      213.925    -178.279    -119.265
  H      213.126    -176.427    -117.774
  H      214.966    -180.847    -116.258
  H      215.650    -179.894    -117.594
  H      214.261    -180.978    -117.893
  H      210.503    -177.599    -126.108
  H      208.907    -178.151    -125.658
  H      209.977    -179.205    -126.551

 3  4  5  6  7  8  9  10  11  12  23  26  30  31 0
 6-311+G(2d,p)
 ****
 33  35  36  37  38 0
 6-311+G(2d,p)
 ****
 1  2  13  14  15  16  17  18  19  20  21  22  24  25 0
 3-21G
 ****
 27  28  29  32  34  39  40  41  42  43  44  45  46  47  48  49 0
 3-21G
 ****


