%nproc=1
%NoSave
%Mem=1900MB
#P OB98/GEN NMR

erre ene a

0 1
  C     -278.217     367.760     113.363
  O     -279.576     367.649     113.793
  P     -279.818     367.343     115.352
  C     -279.611     365.237     116.874
  O     -279.695     365.752     115.551
  C     -279.770     363.715     116.874
  O     -281.114     363.336     116.516
  C     -278.876     362.990     115.877
  O     -277.547     362.845     116.371
  C     -279.571     361.638     115.787
  O     -279.157     360.805     116.889
  C     -281.053     362.011     115.924
  N     -283.821     359.346     112.611
  C     -283.268     358.964     113.822
  N     -283.512     357.691     114.213
  N     -282.547     359.749     114.572
  C     -282.411     361.000     114.073
  C     -282.904     361.501     112.886
  C     -283.676     360.606     112.044
  O     -284.159     360.892     110.949
  N     -282.562     362.822     112.714
  C     -281.890     363.127     113.809
  N     -281.758     362.051     114.656
  O     -281.383     367.615     115.535
  O     -278.993     368.178     116.274
  H     -279.610     359.948     116.780
  H     -281.575     367.872     116.458
  H     -284.361     358.696     112.068
  H     -281.483     364.105     114.037
  H     -281.590     361.333     116.597
  H     -279.325     361.098     114.870
  H     -284.122     357.056     113.718
  H     -278.899     363.487     114.900
  H     -283.148     357.403     115.112
  H     -279.568     363.353     117.893
  H     -280.387     365.684     117.500
  H     -278.647     365.527     117.308
  P     -276.385     363.616     115.576
  C     -275.238     363.240     113.279
  O     -276.302     362.904     114.142
  O     -275.054     363.134     116.329
  O     -276.524     365.105     115.569
  H     -274.366     363.820     116.265
  H     -274.289     363.303     113.823
  H     -275.444     364.203     112.794
  H     -275.149     362.469     112.505
  H     -278.191     367.963     112.313
  H     -277.704     366.842     113.562
  H     -277.739     368.558     113.893

 3  4  5  6  7  8  9  10  11  12  23  26  30  31  33  0
 6-311+G(2d,p)
 ****
 35  36  37  38 0
 6-311+G(2d,p)
 ****
 1  2  13  14  15  16  17  18  19  20  21  22  24  25  27  28  29 0
 3-21G
 ****
 32  34  39  40  41  42  43  44  45  46  47  48  49 0
 3-21G
 ****


