%nproc=1
%NoSave
%Mem=1900MB
#P OB98/GEN NMR

erre ene a

0 1
  C      496.636    -309.695      14.123
  O      495.656    -310.698      13.835
  P      496.048    -311.831      12.760
  C      495.173    -313.838      14.198
  O      495.036    -313.050      13.024
  C      494.013    -314.838      14.316
  O      492.827    -314.155      14.845
  C      493.617    -315.509      12.994
  O      493.266    -316.865      13.307
  C      492.391    -314.723      12.573
  O      491.568    -315.461      11.672
  C      491.746    -314.445      13.939
  N      490.780    -313.346      13.900
  C      489.475    -313.664      13.534
  O      489.135    -314.796      13.170
  N      488.579    -312.633      13.546
  C      488.872    -311.325      13.796
  O      488.026    -310.433      13.788
  C      490.283    -311.026      14.061
  C      491.164    -312.030      14.094
  O      497.449    -312.337      13.339
  O      496.090    -311.313      11.363
  H      497.482    -312.363      14.316
  H      491.372    -316.337      12.076
  H      487.621    -312.843      13.312
  H      490.566    -309.989      14.213
  H      492.221    -311.844      14.267
  H      491.225    -315.333      14.311
  H      492.684    -313.790      12.091
  H      494.418    -315.488      12.250
  H      494.307    -315.599      15.058
  H      495.170    -313.188      15.083
  H      496.139    -314.342      14.182
  P      493.994    -318.046      12.496
  C      494.171    -319.676      14.535
  O      493.654    -319.412      13.251
  O      495.521    -317.771      12.908
  O      493.779    -318.013      11.018
  H      495.638    -317.631      13.864
  H      493.646    -320.526      14.965
  H      494.055    -318.813      15.202
  H      495.242    -319.926      14.458
  H      496.245    -309.012      14.848
  H      496.877    -309.164      13.226
  H      497.519    -310.160      14.510

 3  4  5  6  7  8  9  10  11  12  13  24  28  29  30  31  32 0
 6-311+G(2d,p)
 ****
 33  34 0
 6-311+G(2d,p)
 ****
 1  2  14  15  16  17  18  19  20  21  22  23  25  26  27 0
 3-21G
 ****
 35  36  37  38  39  40  41  42  43  44  45 0
 3-21G
 ****


