%nproc=1
%NoSave
%Mem=1900MB
#P OB98/GEN NMR

erre ene a

0 1
  C       24.257     563.387     562.143
  O       25.170     563.882     563.106
  H       23.243     563.641     562.461
  H       24.341     562.300     562.075
  H       24.451     563.843     561.168
  P       26.730     563.771     562.747
  C       27.057     561.601     564.190
  O       27.398     562.956     563.958
  C       28.318     560.738     564.298
  O       29.022     560.786     563.030
  C       29.291     561.205     565.387
  O       29.907     560.052     565.968
  C       30.330     562.003     564.614
  O       31.569     562.082     565.308
  C       30.371     561.219     563.284
  N       30.898     562.025     562.184
  C       32.212     562.490     562.315
  O       32.866     562.224     563.325
  N       32.738     563.265     561.318
  C       32.005     563.617     560.313
  N       32.582     564.410     559.369
  C       30.601     563.191     560.155
  C       30.120     562.396     561.110
  O       27.229     565.273     562.980
  O       27.010     563.231     561.384
  H       32.164     562.695     564.822
  H       26.884     565.674     563.796
  H       30.024     563.514     559.304
  H       29.099     562.033     561.071
  H       30.999     560.328     563.382
  H       29.974     563.020     564.443
  H       28.804     561.797     566.168
  H       28.017     559.700     564.454
  H       33.541     564.698     559.531
  H       26.429     561.223     563.379
  H       32.085     564.787     558.575
  H       26.483     561.550     565.120
  P       29.568     559.644     567.472
  C       32.043     559.550     568.210
  O       30.809     558.858     568.107
  O       28.227     559.014     567.692
  O       29.634     561.062     568.241
  H       28.901     561.086     568.882
  H       32.777     558.907     568.649
  H       31.915     560.417     568.824
  H       32.368     559.848     567.235

 6  7  8  9  10  11  12  13  14  15  16  26  30  31  32  33  35 0
 6-311+G(2d,p)
 ****
 37  38 0
 6-311+G(2d,p)
 ****
 1  2  3  4  5  17  18  19  20  21  22  23  24  25 0
 3-21G
 ****
 27  28  29  34  36  39  40  41  42  43  44  45  46 0
 3-21G
 ****


