%nproc=1
%NoSave
%Mem=1900MB
#P OB98/GEN NMR

erre ene a

0 1
  C       41.787      93.309     200.489
  O       41.174      93.192     199.220
  H       42.606      94.030     200.416
  H       42.193      92.349     200.817
  H       41.065      93.676     201.222
  P       40.111      92.008     199.002
  C       38.117      93.644     199.128
  O       38.758      92.510     199.709
  C       36.628      93.373     198.899
  O       36.456      92.401     197.848
  C       35.919      92.782     200.107
  O       35.777      93.678     201.188
  C       34.683      92.151     199.484
  O       33.599      93.061     199.330
  C       35.209      91.721     198.094
  N       35.345      90.275     197.983
  C       34.211      89.590     197.560
  O       33.138      90.139     197.310
  N       34.333      88.230     197.473
  C       35.438      87.505     197.809
  O       35.471      86.282     197.748
  C       36.597      88.282     198.275
  C       36.501      89.612     198.339
  O       40.555      90.646     199.442
  O       39.759      92.097     197.445
  H       33.393      93.416     200.217
  H       39.325      91.268     197.130
  H       33.525      87.718     197.158
  H       37.491      87.739     198.553
  H       37.343      90.208     198.681
  H       34.516      92.053     197.309
  H       34.315      91.316     200.086
  H       36.529      91.952     200.485
  H       36.153      94.307     198.579
  H       38.599      93.842     198.166
  H       38.251      94.516     199.776
  P       35.621      93.203     202.706
  C       38.198      93.235     203.032
  O       36.991      92.491     203.154
  O       34.324      92.559     203.080
  O       35.701      94.613     203.487
  H       35.115      94.550     204.266
  H       39.021      92.637     203.365
  H       38.134      94.119     203.631
  H       38.347      93.508     202.008

 6  7  8  9  10  11  12  13  14  15  16  26  31  32  33  34  35 0
 6-311+G(2d,p)
 ****
 36  37 0
 6-311+G(2d,p)
 ****
 1  2  3  4  5  17  18  19  20  21  22  23  24  25 0
 3-21G
 ****
 27  28  29  30  38  39  40  41  42  43  44  45 0
 3-21G
 ****


