%nproc=1
%NoSave
%Mem=1900MB
#P OB98/GEN NMR

erre ene a

0 1
  C     -142.396      35.331     592.429
  O     -141.399      35.299     593.431
  H     -143.072      36.159     592.622
  H     -142.962      34.399     592.435
  H     -141.937      35.477     591.441
  P     -140.157      34.310     593.220
  C     -139.641      33.326     595.571
  O     -139.324      34.314     594.599
  C     -138.694      33.441     596.759
  O     -137.325      33.293     596.272
  C     -138.764      34.793     597.498
  O     -138.561      34.542     598.908
  C     -137.576      35.561     596.951
  O     -137.108      36.581     597.802
  C     -136.560      34.413     596.764
  N     -135.487      34.770     595.844
  C     -134.507      35.655     596.314
  O     -134.438      36.077     597.455
  N     -133.570      36.035     595.387
  C     -133.539      35.665     594.068
  O     -132.675      36.056     593.279
  C     -134.598      34.744     593.638
  C     -135.515      34.349     594.521
  O     -139.210      35.133     592.221
  O     -140.494      32.953     592.700
  H     -139.436      34.930     591.291
  H     -136.292      36.957     597.404
  H     -132.860      36.678     595.700
  H     -134.612      34.427     592.594
  H     -136.311      33.679     594.233
  H     -136.140      34.129     597.737
  H     -137.841      36.002     595.981
  H     -139.710      35.325     597.356
  H     -138.875      32.604     597.452
  H     -139.547      32.325     595.129
  H     -140.687      33.466     595.904
  P     -139.688      35.091     599.914
  C     -137.650      35.570     601.492
  O     -138.987      35.118     601.356
  O     -140.681      33.839     599.961
  O     -140.306      36.364     599.464
  H     -140.221      32.978     599.916
  H     -137.358      35.516     602.520
  H     -137.580      36.583     601.154
  H     -137.003      34.952     600.904

 6  7  8  9  10  11  12  13  14  15  16  27  31  32  33  34  35 0
 6-311+G(2d,p)
 ****
 36  37 0
 6-311+G(2d,p)
 ****
 1  2  3  4  5  17  18  19  20  21  22  23  24  25 0
 3-21G
 ****
 26  28  29  30  38  39  40  41  42  43  44  45 0
 3-21G
 ****


