%nproc=1
%NoSave
%Mem=1900MB
#P OB98/GEN NMR

erre ene a

0 1
  C     -527.510    -289.101      22.390
  O     -526.900    -288.238      21.417
  P     -525.368    -287.824      21.694
  C     -524.181    -285.509      21.853
  O     -525.349    -286.273      22.136
  C     -524.520    -284.108      21.341
  O     -525.441    -284.221      20.228
  C     -525.170    -283.182      22.369
  O     -524.687    -281.848      22.171
  C     -526.633    -283.204      21.984
  O     -527.335    -282.049      22.451
  C     -526.517    -283.301      20.464
  N     -530.681    -281.881      17.940
  C     -529.579    -281.135      18.328
  N     -529.605    -279.820      18.019
  N     -528.548    -281.634      18.963
  C     -528.648    -282.971      19.177
  C     -529.665    -283.823      18.836
  C     -530.823    -283.247      18.170
  O     -531.849    -283.847      17.850
  N     -529.399    -285.116      19.221
  C     -528.215    -285.046      19.805
  N     -527.721    -283.759      19.807
  O     -524.723    -287.823      20.228
  O     -524.651    -288.759      22.615
  H     -527.371    -282.108      23.425
  H     -523.958    -288.417      20.210
  H     -531.455    -281.450      17.476
  H     -527.692    -285.871      20.258
  H     -526.236    -282.334      20.025
  H     -527.119    -284.091      22.411
  H     -530.346    -279.387      17.480
  H     -525.011    -283.477      23.420
  H     -528.794    -279.257      18.257
  H     -523.597    -283.657      20.952
  H     -523.577    -286.039      21.112
  H     -523.580    -285.445      22.772
  P     -524.512    -280.938      23.483
  C     -524.754    -278.373      23.835
  O     -525.165    -279.519      23.116
  O     -522.943    -280.632      23.514
  O     -524.998    -281.581      24.743
  H     -522.648    -280.461      24.428
  H     -523.871    -278.554      24.440
  H     -525.579    -278.044      24.478
  H     -524.542    -277.571      23.119
  H     -528.520    -289.306      22.102
  H     -527.502    -288.622      23.347
  H     -526.962    -290.018      22.446

 3  4  5  6  7  8  9  10  11  12  23  26  30  31  33  0
 6-311+G(2d,p)
 ****
 35  36  37  38 0
 6-311+G(2d,p)
 ****
 1  2  13  14  15  16  17  18  19  20  21  22  24  25  27  28  29 0
 3-21G
 ****
 32  34  39  40  41  42  43  44  45  46  47  48  49 0
 3-21G
 ****


