%nproc=1
%NoSave
%Mem=1900MB
#P OB98/GEN NMR

erre ene a

0 1
  C      678.354    -888.440    -349.067
  O      679.060    -888.487    -347.836
  H      677.385    -887.977    -348.904
  H      678.203    -889.471    -349.412
  H      678.913    -887.874    -349.815
  P      680.633    -888.763    -347.895
  C      682.574    -887.363    -346.872
  O      681.292    -887.938    -346.672
  C      682.829    -886.262    -345.836
  O      681.855    -885.201    -346.021
  C      682.725    -886.741    -344.385
  O      683.721    -886.055    -343.597
  C      681.367    -886.250    -343.957
  O      681.258    -886.101    -342.537
  C      681.295    -884.933    -344.727
  N      678.204    -881.359    -343.020
  C      679.565    -881.494    -342.909
  N      680.228    -880.551    -342.180
  N      680.252    -882.455    -343.470
  C      679.484    -883.318    -344.173
  C      678.125    -883.312    -344.353
  C      677.372    -882.239    -343.723
  O      676.150    -882.077    -343.754
  N      677.708    -884.388    -345.096
  C      678.826    -885.071    -345.350
  N      679.916    -884.442    -344.804
  O      681.095    -887.942    -349.196
  O      681.034    -890.197    -347.980
  H      680.371    -885.746    -342.348
  H      681.114    -888.527    -349.970
  H      677.725    -880.605    -342.543
  H      678.880    -885.994    -345.883
  H      681.886    -884.134    -344.255
  H      680.600    -886.945    -344.286
  H      679.780    -879.760    -341.747
  H      682.850    -887.820    -344.257
  H      681.229    -880.608    -342.129
  H      683.822    -885.828    -346.033
  H      682.610    -886.919    -347.881
  H      683.339    -888.150    -346.799
  P      685.094    -886.822    -343.251
  C      687.478    -886.032    -342.590
  O      686.074    -885.830    -342.481
  O      685.783    -886.997    -344.700
  O      684.894    -888.151    -342.611
  H      686.265    -887.828    -344.731
  H      687.991    -885.287    -342.018
  H      687.770    -885.958    -343.617
  H      687.729    -887.003    -342.217

 6  7  8  9  10  11  12  13  14  15  26  29  33  34 0
 6-311+G(2d,p)
 ****
 36  38  39  40  41 0
 6-311+G(2d,p)
 ****
 1  2  3  4  5  16  17  18  19  20  21  22  23  24  25 0
 3-21G
 ****
 27  28  30  31  32  35  37  42  43  44  45  46  47 0
 3-21G
 ****
 48  49 0
 3-21G
 ****


