%nproc=1
%NoSave
%Mem=1900MB
#P OB98/GEN NMR

erre ene a

0 1
  C      -88.250     872.849    -290.341
  O      -88.243     871.932    -291.436
  P      -87.072     872.129    -292.514
  C      -86.457     869.650    -292.055
  O      -85.986     870.965    -292.291
  C      -85.433     868.615    -292.544
  O      -85.356     868.555    -293.983
  C      -84.024     868.888    -292.048
  O      -83.876     868.445    -290.714
  C      -83.192     868.078    -293.046
  O      -83.100     866.698    -292.649
  C      -83.997     868.222    -294.343
  N      -82.112     868.925    -298.999
  C      -82.390     867.749    -298.330
  N      -82.170     866.597    -299.006
  N      -82.861     867.707    -297.106
  C      -83.037     868.928    -296.559
  C      -82.822     870.167    -297.139
  C      -82.302     870.206    -298.485
  O      -82.058     871.212    -299.128
  N      -83.181     871.183    -296.286
  C      -83.489     870.563    -295.155
  N      -83.487     869.202    -295.295
  O      -86.329     873.461    -292.014
  O      -87.574     872.265    -293.923
  H      -82.711     866.648    -291.748
  H      -86.510     874.186    -292.649
  H      -81.745     868.905    -299.941
  H      -83.759     871.058    -294.231
  H      -84.033     867.265    -294.896
  H      -82.160     868.450    -293.101
  H      -81.810     866.567    -299.946
  H      -83.788     869.956    -292.145
  H      -82.376     865.729    -298.529
  H      -85.772     867.630    -292.185
  H      -87.402     869.498    -292.562
  H      -86.649     869.533    -290.983
  P      -82.525     868.831    -289.940
  C      -83.739     869.243    -287.684
  O      -82.928     869.768    -288.710
  O      -81.791     869.827    -290.966
  O      -81.653     867.667    -289.595
  H      -80.845     869.601    -291.014
  H      -83.501     869.747    -286.750
  H      -83.575     868.164    -287.556
  H      -84.792     869.422    -287.923
  H      -89.070     872.623    -289.691
  H      -88.354     873.847    -290.712
  H      -87.331     872.764    -289.799

 3  4  5  6  7  8  9  10  11  12  23  26  30  31 0
 6-311+G(2d,p)
 ****
 33  35  36  37  38 0
 6-311+G(2d,p)
 ****
 1  2  13  14  15  16  17  18  19  20  21  22  24  25 0
 3-21G
 ****
 27  28  29  32  34  39  40  41  42  43  44  45  46  47  48  49 0
 3-21G
 ****


