%nproc=1
%NoSave
%Mem=1900MB
#P OB98/GEN NMR

erre ene a

0 1
  C      313.651    -266.705      63.285
  O      314.585    -266.403      62.265
  H      312.716    -267.018      62.814
  H      313.461    -265.819      63.900
  H      314.029    -267.520      63.904
  P      316.028    -265.882      62.748
  C      317.106    -268.017      61.777
  O      316.890    -267.228      62.943
  C      317.272    -269.492      62.157
  O      316.009    -269.978      62.672
  C      317.668    -270.383      60.971
  O      318.590    -271.381      61.422
  C      316.357    -271.046      60.576
  O      316.558    -272.289      59.918
  C      315.638    -271.146      61.922
  N      311.519    -274.109      62.476
  C      312.803    -274.273      62.856
  N      313.845    -273.419      62.689
  C      313.425    -272.281      62.079
  C      312.152    -271.982      61.648
  C      311.165    -272.966      61.849
  N      309.852    -272.819      61.447
  N      312.131    -270.734      61.040
  C      313.373    -270.299      61.127
  N      314.195    -271.205      61.746
  O      316.028    -264.947      63.915
  O      316.630    -265.281      61.390
  H      316.894    -272.107      59.013
  H      316.462    -265.878      60.635
  H      313.034    -275.206      63.358
  H      313.727    -269.339      60.763
  H      315.933    -272.043      62.491
  H      315.808    -270.383      59.894
  H      318.110    -269.819      60.149
  H      318.006    -269.568      62.975
  H      318.003    -267.667      61.256
  H      309.209    -273.569      61.648
  H      309.574    -271.957      60.996
  H      316.246    -267.888      61.116
  P      320.148    -271.111      61.228
  C      320.531    -271.030      63.780
  O      320.717    -270.363      62.536
  O      320.561    -270.510      59.923
  O      320.779    -272.588      61.383
  H      321.528    -272.673      60.754
  H      320.948    -270.438      64.568
  H      321.020    -271.981      63.751
  H      319.485    -271.172      63.956

 6  7  8  9  10  11  12  13  14  15  25  28  32  33  34  35 0
 6-311+G(2d,p)
 ****
 36  39  40 0
 6-311+G(2d,p)
 ****
 1  2  3  4  5  16  17  18  19  20  21  22  23  24 0
 3-21G
 ****
 26  27  29  30  31  37  38  41  42  43  44  45  46  47 0
 3-21G
 ****
 48 0
 3-21G
 ****


