%nproc=1
%NoSave
%Mem=1900MB
#P OB98/GEN NMR

erre ene a

0 1
  C      -13.977    1349.316    1262.541
  O      -13.026    1348.865    1261.594
  H      -13.507    1349.287    1263.532
  H      -14.842    1348.677    1262.531
  H      -14.254    1350.347    1262.319
  P      -13.511    1348.730    1260.078
  C      -14.582    1346.368    1260.317
  O      -13.544    1347.168    1259.738
  C      -14.598    1344.997    1259.606
  O      -14.963    1345.158    1258.232
  C      -13.256    1344.267    1259.625
  O      -12.966    1343.644    1260.878
  C      -13.462    1343.272    1258.497
  O      -14.132    1342.076    1258.980
  C      -14.371    1344.040    1257.504
  N      -13.614    1344.489    1256.346
  C      -13.526    1343.631    1255.270
  O      -14.088    1342.521    1255.286
  N      -12.802    1344.009    1254.188
  C      -12.089    1345.173    1254.099
  O      -11.370    1345.450    1253.130
  C      -12.135    1346.087    1255.273
  C      -12.904    1345.695    1256.338
  O      -12.265    1349.283    1259.222
  O      -14.773    1349.466    1259.743
  H      -12.486    1350.165    1258.861
  H      -13.667    1341.836    1259.820
  H      -12.752    1343.394    1253.427
  H      -11.575    1346.982    1255.260
  H      -12.950    1346.346    1257.201
  H      -15.187    1343.412    1257.145
  H      -12.518    1342.943    1258.075
  H      -12.456    1344.979    1259.324
  H      -15.364    1344.372    1260.131
  H      -15.553    1346.843    1260.169
  H      -14.383    1346.258    1261.383
  P      -11.605    1344.110    1261.639
  C       -9.754    1342.692    1260.389
  O      -10.606    1342.859    1261.545
  O      -12.151    1344.104    1263.146
  O      -11.116    1345.426    1261.163
  H      -12.879    1343.437    1263.284
  H       -9.163    1341.808    1260.506
  H       -9.110    1343.541    1260.295
  H      -10.358    1342.603    1259.510

 6  7  8  9  10  11  12  13  14  15  16  27  31  32  33  34  35 0
 6-311+G(2d,p)
 ****
 36  37 0
 6-311+G(2d,p)
 ****
 1  2  3  4  5  17  18  19  20  21  22  23  24  25 0
 3-21G
 ****
 26  28  29  30  38  39  40  41  42  43  44  45 0
 3-21G
 ****


