%nproc=1
%NoSave
%Mem=1900MB
#P OB98/GEN NMR

erre ene a

0 1
  C      103.164       7.744     -59.723
  O      102.166       8.219     -60.604
  H      102.902       7.986     -58.690
  H      103.233       6.657     -59.822
  H      104.132       8.185     -59.975
  P      101.880       9.798     -60.587
  C      103.381      11.892     -60.952
  O      103.321      10.488     -60.743
  C      104.726      12.417     -60.463
  O      104.811      12.301     -59.024
  C      105.923      11.649     -61.012
  O      106.292      12.074     -62.312
  C      106.985      12.014     -59.990
  O      107.461      13.348     -60.238
  C      106.183      11.968     -58.680
  N      108.970       8.751     -55.835
  C      109.208      10.007     -56.271
  N      108.406      10.804     -57.006
  C      107.246      10.188     -57.281
  C      106.859       8.913     -56.900
  C      107.784       8.175     -56.143
  N      107.559       6.883     -55.724
  N      105.602       8.620     -57.391
  C      105.233       9.706     -58.039
  N      106.206      10.668     -58.030
  O      101.500      10.100     -59.062
  O      100.853      10.285     -61.553
  H      106.677      13.927     -60.282
  H      101.092      10.983     -58.982
  H      110.171      10.425     -55.996
  H      104.282       9.839     -58.539
  H      106.531      12.704     -57.947
  H      107.853      11.350     -60.028
  H      105.754      10.567     -60.981
  H      104.792      13.482     -60.715
  H      102.572      12.371     -60.391
  H      108.338       6.388     -55.319
  H      106.747       6.395     -56.072
  H      103.257      12.106     -62.018
  P      107.232      11.095     -63.173
  C      106.768       8.792     -64.280
  O      106.501       9.666     -63.191
  O      108.482      10.859     -62.205
  O      107.639      11.636     -64.504
  H      109.301      10.733     -62.719
  H      106.213       7.886     -64.154
  H      107.814       8.569     -64.310
  H      106.477       9.264     -65.195

 6  7  8  9  10  11  12  13  14  15  25  28  32  33  34  35 0
 6-311+G(2d,p)
 ****
 36  39  40 0
 6-311+G(2d,p)
 ****
 1  2  3  4  5  16  17  18  19  20  21  22  23  24 0
 3-21G
 ****
 26  27  29  30  31  37  38  41  42  43  44  45  46  47 0
 3-21G
 ****
 48 0
 3-21G
 ****


