%nproc=1
%NoSave
%Mem=1900MB
#P OB98/GEN NMR

erre ene a

0 1
  C      -15.026     187.250    -189.293
  O      -16.405     187.591    -189.117
  P      -17.491     186.551    -189.681
  C      -17.435     184.897    -187.686
  O      -18.201     185.833    -188.430
  C      -18.170     184.456    -186.412
  O      -18.691     185.608    -185.690
  C      -19.356     183.522    -186.679
  O      -19.449     182.610    -185.576
  C      -20.546     184.463    -186.636
  O      -21.765     183.756    -186.416
  C      -20.110     185.403    -185.513
  N      -24.623     187.653    -184.709
  C      -24.216     186.373    -184.585
  N      -22.998     185.848    -184.842
  C      -22.143     186.810    -185.223
  C      -22.415     188.161    -185.406
  C      -23.727     188.580    -185.129
  N      -24.147     189.882    -185.279
  N      -21.286     188.824    -185.856
  C      -20.359     187.892    -185.949
  N      -20.820     186.668    -185.549
  O      -16.588     185.392    -190.317
  O      -18.422     187.137    -190.693
  H      -22.507     184.329    -186.709
  H      -16.636     185.431    -191.291
  H      -24.975     185.671    -184.239
  H      -19.349     188.047    -186.302
  H      -20.271     184.970    -184.518
  H      -20.631     185.002    -187.587
  H      -19.298     182.966    -187.620
  H      -17.447     183.955    -185.755
  H      -16.468     185.334    -187.409
  H      -25.115     190.094    -185.091
  H      -23.501     190.570    -185.640
  H      -17.201     184.039    -188.328
  P      -18.313     181.483    -185.485
  C      -16.513     182.328    -183.815
  O      -17.703     181.581    -184.008
  O      -17.143     182.045    -186.422
  O      -18.769     180.123    -185.910
  H      -16.601     181.308    -186.763
  H      -16.598     182.892    -182.881
  H      -16.333     183.033    -184.634
  H      -15.668     181.641    -183.739
  H      -14.412     188.021    -188.876
  H      -14.814     187.150    -190.337
  H      -14.822     186.324    -188.798

 3  4  5  6  7  8  9  10  11  12  22  25  29  30  31  32 0
 6-311+G(2d,p)
 ****
 33  36  37 0
 6-311+G(2d,p)
 ****
 1  2  13  14  15  16  17  18  19  20  21  23  24  26 0
 3-21G
 ****
 27  28  34  35  38  39  40  41  42  43  44  45  46  47  48 0
 3-21G
 ****


