%nproc=1
%NoSave
%Mem=1900MB
#P OB98/GEN NMR

erre ene a

0 1
  C     -375.968     775.886     155.803
  O     -374.828     775.167     156.207
  P     -373.493     775.075     155.343
  C     -372.293     776.686     157.023
  O     -372.585     776.354     155.669
  C     -370.884     776.211     157.419
  O     -369.932     776.731     156.452
  C     -370.473     776.762     158.800
  O     -369.799     775.817     159.620
  C     -369.720     778.039     158.442
  O     -368.860     778.501     159.476
  C     -369.045     777.646     157.131
  N     -366.837     782.193     156.617
  C     -366.695     781.272     157.638
  N     -366.048     781.693     158.744
  N     -367.201     780.065     157.590
  C     -367.936     779.824     156.478
  C     -368.125     780.662     155.397
  C     -367.540     781.970     155.447
  O     -367.725     782.865     154.611
  N     -368.978     780.103     154.475
  C     -369.322     778.947     155.013
  N     -368.742     778.747     156.240
  O     -373.637     774.661     153.910
  O     -372.693     773.897     156.110
  H     -368.556     779.397     159.215
  H     -372.188     773.404     155.436
  H     -366.484     783.137     156.752
  H     -370.013     778.231     154.567
  H     -368.104     777.132     157.304
  H     -370.468     778.819     158.278
  H     -365.782     782.660     158.862
  H     -371.362     777.023     159.390
  H     -366.152     781.143     159.587
  H     -370.844     775.113     157.370
  H     -373.049     776.173     157.630
  H     -372.400     777.757     157.193
  P     -369.646     775.793     161.206
  C     -371.717     774.279     161.327
  O     -371.076     775.424     161.845
  O     -369.456     777.321     161.631
  O     -368.512     774.971     161.722
  H     -368.799     777.390     162.346
  H     -372.773     774.302     161.629
  H     -371.251     773.379     161.712
  H     -371.671     774.271     160.231
  H     -376.729     775.796     156.549
  H     -376.329     775.491     154.876
  H     -375.713     776.917     155.676

 3  4  5  6  7  8  9  10  11  12  23  26  30  31 0
 6-311+G(2d,p)
 ****
 33  35  36  37  38 0
 6-311+G(2d,p)
 ****
 1  2  13  14  15  16  17  18  19  20  21  22  24  25 0
 3-21G
 ****
 27  28  29  32  34  39  40  41  42  43  44  45  46  47  48  49 0
 3-21G
 ****


