%nproc=1
%NoSave
%Mem=1900MB
#P OB98/GEN NMR

erre ene a

0 1
  C     -244.916     472.800     747.560
  O     -243.681     472.460     748.156
  H     -245.553     473.267     748.320
  H     -245.408     471.895     747.195
  H     -244.783     473.502     746.736
  P     -242.446     472.100     747.206
  C     -241.466     469.946     746.152
  O     -242.431     470.496     747.035
  C     -242.053     468.809     745.323
  O     -242.656     467.827     746.203
  C     -243.188     469.333     744.416
  O     -243.327     468.556     743.231
  C     -244.423     469.139     745.278
  O     -245.629     469.099     744.522
  C     -244.084     467.841     746.008
  N     -248.527     467.396     748.470
  C     -248.293     467.653     747.127
  N     -249.383     467.830     746.341
  N     -247.098     467.732     746.611
  C     -246.100     467.607     747.523
  C     -246.207     467.383     748.874
  C     -247.545     467.249     749.434
  O     -247.813     467.035     750.609
  N     -244.975     467.330     749.481
  C     -244.114     467.525     748.495
  N     -244.753     467.692     747.285
  O     -241.161     472.352     748.139
  O     -242.356     472.872     745.922
  H     -246.345     468.815     745.124
  H     -240.374     472.547     747.590
  H     -249.473     467.323     748.809
  H     -243.043     467.565     748.605
  H     -244.356     466.968     745.391
  H     -244.502     470.004     745.965
  H     -250.309     467.940     746.727
  H     -243.040     470.379     744.148
  H     -249.228     468.296     745.442
  H     -241.275     468.292     744.758
  H     -240.637     469.579     746.766
  H     -241.061     470.734     745.504
  P     -243.067     469.295     741.823
  C     -244.499     470.815     740.217
  O     -244.355     470.180     741.487
  O     -243.110     468.110     740.754
  O     -241.771     470.049     741.780
  H     -242.220     467.891     740.452
  H     -245.422     471.356     740.191
  H     -244.498     470.074     739.445
  H     -243.685     471.492     740.062

 6  7  8  9  10  11  12  13  14  15  26  29  33  34 0
 6-311+G(2d,p)
 ****
 36  38  39  40  41 0
 6-311+G(2d,p)
 ****
 1  2  3  4  5  16  17  18  19  20  21  22  23  24  25 0
 3-21G
 ****
 27  28  30  31  32  35  37  42  43  44  45  46  47 0
 3-21G
 ****
 48  49 0
 3-21G
 ****


