%nproc=1
%NoSave
%Mem=1900MB
#P OB98/GEN NMR

erre ene a

0 1
  C     -171.335    -263.558     104.903
  O     -171.008    -262.233     104.528
  H     -172.378    -263.748     104.637
  H     -171.223    -263.683     105.983
  H     -170.703    -264.277     104.375
  P     -169.488    -261.745     104.669
  C     -170.346    -259.657     103.419
  O     -169.484    -260.162     104.432
  C     -169.824    -258.313     102.916
  O     -168.489    -258.462     102.387
  C     -170.653    -257.716     101.787
  O     -171.851    -257.148     102.274
  C     -169.665    -256.716     101.206
  O     -169.643    -255.508     101.981
  C     -168.330    -257.483     101.335
  N     -167.914    -258.116     100.084
  C     -167.218    -257.309      99.186
  O     -166.979    -256.119      99.389
  N     -166.825    -257.915      98.023
  C     -167.154    -259.181      97.630
  O     -166.851    -259.648      96.536
  C     -167.911    -259.976      98.605
  C     -168.248    -259.417      99.771
  O     -168.485    -262.508     103.866
  O     -169.195    -261.872     106.239
  H     -170.539    -255.121     101.911
  H     -168.639    -262.654     106.403
  H     -166.333    -257.347      97.352
  H     -168.179    -260.989      98.339
  H     -168.812    -259.983     100.501
  H     -167.532    -256.801     101.657
  H     -169.917    -256.436     100.181
  H     -170.866    -258.481     101.033
  H     -169.775    -257.621     103.771
  H     -171.345    -259.524     103.845
  H     -170.400    -260.385     102.604
  P     -173.117    -256.999     101.307
  C     -174.600    -257.002     103.404
  O     -174.318    -256.367     102.161
  O     -173.471    -258.216     100.520
  O     -172.704    -255.798     100.329
  H     -172.692    -256.120      99.408
  H     -175.414    -256.500     103.884
  H     -173.734    -256.959     104.031
  H     -174.864    -258.024     103.230

 6  7  8  9  10  11  12  13  14  15  16  26  31  32  33  34  35 0
 6-311+G(2d,p)
 ****
 36  37 0
 6-311+G(2d,p)
 ****
 1  2  3  4  5  17  18  19  20  21  22  23  24  25 0
 3-21G
 ****
 27  28  29  30  38  39  40  41  42  43  44  45 0
 3-21G
 ****


