%nproc=1
%NoSave
%Mem=1900MB
#P OB98/GEN NMR

erre ene a

0 1
  C      217.502    -182.562    -213.584
  O      217.405    -181.281    -214.217
  P      216.017    -180.903    -214.927
  C      215.640    -178.856    -213.361
  O      215.730    -179.346    -214.697
  C      215.870    -177.345    -213.338
  O      217.273    -177.031    -213.257
  C      215.374    -176.644    -214.592
  O      213.968    -176.491    -214.553
  C      216.139    -175.328    -214.545
  O      215.412    -174.314    -213.826
  C      217.438    -175.708    -213.802
  N      218.618    -175.631    -214.648
  C      219.087    -174.341    -214.928
  O      218.494    -173.357    -214.487
  N      220.196    -174.209    -215.726
  C      220.767    -175.263    -216.220
  N      221.857    -175.063    -217.006
  C      220.286    -176.638    -215.972
  C      219.218    -176.747    -215.180
  O      214.928    -181.623    -213.997
  O      215.918    -181.367    -216.345
  H      215.142    -174.735    -212.981
  H      214.167    -181.915    -214.534
  H      220.792    -177.486    -216.410
  H      218.794    -177.717    -214.944
  H      217.598    -175.037    -212.942
  H      216.317    -174.933    -215.550
  H      215.670    -177.217    -215.483
  H      215.361    -176.929    -212.451
  H      222.158    -174.109    -217.160
  H      216.375    -179.356    -212.725
  H      222.376    -175.812    -217.447
  H      214.654    -179.112    -212.957
  P      213.227    -176.072    -215.911
  C      211.703    -178.141    -215.893
  O      211.766    -176.734    -215.806
  O      213.942    -177.027    -216.985
  O      213.283    -174.638    -216.309
  H      213.636    -176.800    -217.886
  H      210.702    -178.468    -215.600
  H      212.432    -178.600    -215.219
  H      211.892    -178.459    -216.921
  H      218.476    -182.676    -213.156
  H      217.339    -183.332    -214.309
  H      216.763    -182.636    -212.813

 3  4  5  6  7  8  9  10  11  12  13  21  23  27  28  29  30  32 0
 6-311+G(2d,p)
 ****
 34  35 0
 6-311+G(2d,p)
 ****
 1  2  14  15  16  17  18  19  20  22  24  25  26 0
 3-21G
 ****
 31  33  36  37  38  39  40  41  42  43  44  45  46 0
 3-21G
 ****


