%nproc=1
%NoSave
%Mem=1900MB
#P OB98/GEN NMR

erre ene a

0 1
  C     -202.910     872.660    -162.010
  O     -203.829     872.624    -163.082
  H     -201.902     872.796    -162.414
  H     -202.943     871.722    -161.453
  H     -203.139     873.499    -161.345
  P     -205.376     872.427    -162.704
  C     -206.557     874.526    -163.670
  O     -206.217     873.159    -163.864
  C     -205.495     875.432    -164.290
  O     -205.439     875.185    -165.719
  C     -205.765     876.932    -164.085
  O     -204.516     877.598    -163.864
  C     -206.325     877.365    -165.429
  O     -206.159     878.761    -165.655
  C     -205.521     876.472    -166.371
  N     -205.922     878.723    -170.853
  C     -205.167     879.060    -169.745
  N     -204.408     880.176    -169.838
  N     -205.166     878.371    -168.635
  C     -205.953     877.267    -168.688
  C     -206.750     876.829    -169.720
  C     -206.762     877.615    -170.936
  O     -207.421     877.384    -171.942
  N     -207.426     875.685    -169.370
  C     -207.032     875.432    -168.135
  N     -206.140     876.361    -167.678
  O     -205.576     873.390    -161.441
  O     -205.795     871.024    -162.416
  H     -205.200     878.938    -165.741
  H     -206.267     873.043    -160.846
  H     -205.892     879.299    -171.676
  H     -207.368     874.597    -167.530
  H     -204.501     876.843    -166.529
  H     -207.393     877.131    -165.485
  H     -204.335     880.738    -170.670
  H     -206.448     877.145    -163.259
  H     -203.840     880.432    -169.038
  H     -204.515     875.151    -163.883
  H     -206.629     874.726    -162.597
  H     -207.528     874.723    -164.133
  P     -204.333     878.390    -162.482
  C     -201.752     878.644    -162.609
  O     -203.012     879.300    -162.580
  O     -203.911     877.229    -161.461
  O     -205.565     879.096    -162.022
  H     -204.647     877.046    -160.853
  H     -200.972     879.373    -162.675
  H     -201.707     877.996    -163.459
  H     -201.628     878.069    -161.715

 6  7  8  9  10  11  12  13  14  15  26  29  33  34 0
 6-311+G(2d,p)
 ****
 36  38  39  40  41 0
 6-311+G(2d,p)
 ****
 1  2  3  4  5  16  17  18  19  20  21  22  23  24  25 0
 3-21G
 ****
 27  28  30  31  32  35  37  42  43  44  45  46  47 0
 3-21G
 ****
 48  49 0
 3-21G
 ****


