%nproc=1
%NoSave
%Mem=1900MB
#P OB98/GEN NMR

erre ene a

0 1
  C     -253.354      69.831     -34.239
  O     -254.211      70.451     -33.272
  P     -253.551      71.622     -32.384
  C     -254.646      73.865     -33.109
  O     -254.648      72.778     -32.187
  C     -255.977      74.624     -33.102
  O     -257.014      73.774     -33.660
  C     -256.455      75.066     -31.713
  O     -257.093      76.347     -31.841
  C     -257.539      74.051     -31.381
  O     -258.462      74.552     -30.410
  C     -258.138      73.816     -32.767
  N     -262.769      71.792     -32.520
  C     -262.384      73.119     -32.501
  N     -263.373      74.030     -32.380
  N     -261.143      73.512     -32.595
  C     -260.261      72.492     -32.745
  C     -260.518      71.137     -32.789
  C     -261.898      70.713     -32.635
  O     -262.295      69.554     -32.591
  N     -259.364      70.413     -32.946
  C     -258.409      71.320     -32.999
  N     -258.907      72.598     -32.869
  O     -252.473      72.268     -33.376
  O     -252.910      71.130     -31.129
  H     -258.907      73.774     -30.012
  H     -251.586      72.243     -32.968
  H     -263.739      71.536     -32.418
  H     -257.353      71.114     -33.098
  H     -258.780      74.651     -33.068
  H     -257.076      73.143     -30.976
  H     -264.351      73.797     -32.364
  H     -255.670      75.113     -30.957
  H     -263.116      75.011     -32.410
  H     -255.879      75.491     -33.765
  H     -254.453      73.482     -34.115
  H     -253.827      74.543     -32.848
  P     -256.206      77.624     -31.429
  C     -255.598      78.117     -33.914
  O     -256.197      78.579     -32.720
  O     -254.716      77.042     -31.380
  O     -256.615      78.267     -30.144
  H     -254.171      77.563     -30.761
  H     -255.368      77.047     -33.872
  H     -254.669      78.672     -34.081
  H     -256.283      78.297     -34.747
  H     -253.898      69.074     -34.765
  H     -252.517      69.388     -33.741
  H     -253.007      70.568     -34.933

 3  4  5  6  7  8  9  10  11  12  23  26  30  31  33  0
 6-311+G(2d,p)
 ****
 35  36  37  38 0
 6-311+G(2d,p)
 ****
 1  2  13  14  15  16  17  18  19  20  21  22  24  25  27  28  29 0
 3-21G
 ****
 32  34  39  40  41  42  43  44  45  46  47  48  49 0
 3-21G
 ****


