%nproc=1
%NoSave
%Mem=1900MB
#P OB98/GEN NMR

erre ene a

0 1
  C     -149.784    -520.656    -550.079
  O     -149.224    -519.417    -550.530
  P     -149.778    -518.822    -551.915
  C     -151.642    -517.268    -550.928
  O     -150.374    -517.378    -551.557
  C     -152.681    -516.753    -551.931
  O     -154.021    -517.042    -551.469
  C     -152.637    -515.247    -552.144
  O     -151.526    -514.868    -552.942
  C     -154.003    -515.013    -552.789
  O     -153.953    -515.338    -554.187
  C     -154.884    -516.031    -552.041
  N     -155.731    -515.414    -551.026
  C     -157.092    -515.667    -551.128
  O     -157.582    -516.350    -552.028
  N     -157.884    -515.098    -550.171
  C     -157.457    -514.286    -549.160
  O     -158.217    -513.808    -548.322
  C     -156.013    -514.014    -549.126
  C     -155.225    -514.578    -550.044
  O     -151.070    -519.738    -552.153
  O     -148.768    -518.855    -553.013
  H     -151.523    -519.976    -551.323
  H     -153.143    -514.917    -554.539
  H     -158.875    -515.280    -550.219
  H     -155.643    -513.356    -548.351
  H     -154.157    -514.386    -550.038
  H     -155.539    -516.556    -552.748
  H     -154.332    -513.974    -552.707
  H     -152.595    -514.735    -551.176
  H     -152.523    -517.276    -552.881
  H     -151.584    -516.572    -550.084
  H     -151.929    -518.247    -550.534
  P     -150.722    -513.554    -552.481
  C     -148.729    -514.742    -551.281
  O     -149.178    -513.983    -552.369
  O     -151.196    -513.420    -550.956
  O     -151.000    -512.352    -553.324
  H     -151.197    -514.268    -550.485
  H     -147.781    -515.221    -551.543
  H     -149.449    -515.524    -551.007
  H     -148.559    -514.089    -550.415
  H     -149.329    -520.936    -549.152
  H     -149.602    -521.416    -550.810
  H     -150.839    -520.541    -549.939

 3  4  5  6  7  8  9  10  11  12  13  24  28  29  30  31  32 0
 6-311+G(2d,p)
 ****
 33  34 0
 6-311+G(2d,p)
 ****
 1  2  14  15  16  17  18  19  20  21  22  23  25  26  27 0
 3-21G
 ****
 35  36  37  38  39  40  41  42  43  44  45 0
 3-21G
 ****


