%nproc=1
%NoSave
%Mem=1900MB
#P OB98/GEN NMR

erre ene a

0 1
  C     -328.195     330.917     572.945
  O     -328.553     329.993     573.955
  P     -327.446     329.034     574.604
  C     -326.876     330.694     576.486
  O     -326.378     329.954     575.376
  C     -326.209     330.233     577.779
  O     -326.600     328.882     578.108
  C     -324.690     330.198     577.714
  O     -324.123     331.497     577.735
  C     -324.361     329.336     578.926
  O     -324.410     330.109     580.131
  C     -325.523     328.316     578.898
  N     -325.110     327.019     578.380
  C     -325.094     325.968     579.307
  O     -325.333     326.174     580.491
  N     -324.789     324.705     578.852
  C     -324.417     324.532     577.621
  N     -324.193     323.254     577.216
  C     -324.271     325.642     576.657
  C     -324.650     326.840     577.097
  O     -326.850     328.027     573.675
  O     -328.215     328.307     575.806
  H     -328.067     327.343     575.737
  H     -324.300     329.479     580.871
  H     -323.891     325.453     575.663
  H     -324.601     327.716     576.450
  H     -325.934     328.178     579.904
  H     -323.369     328.889     578.863
  H     -324.368     329.678     576.800
  H     -326.538     330.897     578.590
  H     -324.320     322.517     577.901
  H     -327.961     330.535     576.556
  H     -324.220     322.976     576.237
  H     -326.694     331.761     576.317
  P     -322.679     331.678     577.059
  C     -323.842     331.761     574.750
  O     -322.800     331.210     575.532
  O     -321.808     330.515     577.748
  O     -322.053     333.018     577.271
  H     -320.896     330.830     577.886
  H     -323.590     331.630     573.691
  H     -323.979     332.826     574.951
  H     -324.775     331.227     574.954
  H     -329.062     331.464     572.638
  H     -327.791     330.390     572.106
  H     -327.461     331.596     573.327

 3  4  5  6  7  8  9  10  11  12  13  24  27  28  29  30  32 0
 6-311+G(2d,p)
 ****
 34  35 0
 6-311+G(2d,p)
 ****
 1  2  14  15  16  17  18  19  20  21  22  23  25  26 0
 3-21G
 ****
 31  33  36  37  38  39  40  41  42  43  44  45  46 0
 3-21G
 ****


