%nproc=1
%NoSave
%Mem=1900MB
#P OB98/GEN NMR

erre ene a

0 1
  C       79.151     -47.717     144.820
  O       78.292     -48.254     143.826
  P       78.554     -49.766     143.353
  C       79.160     -49.017     140.941
  O       79.574     -49.700     142.116
  C       79.363     -49.891     139.702
  O       80.789     -50.112     139.512
  C       78.691     -51.272     139.777
  O       78.263     -51.594     138.450
  C       79.841     -52.162     140.215
  O       79.616     -53.544     140.000
  C       80.984     -51.542     139.418
  N       85.067     -54.519     138.640
  C       83.943     -54.323     137.912
  N       82.902     -53.507     138.179
  C       83.105     -52.840     139.327
  C       84.189     -52.949     140.184
  C       85.207     -53.837     139.800
  N       86.349     -54.040     140.548
  N       84.032     -52.128     141.282
  C       82.872     -51.534     141.094
  N       82.285     -51.917     139.918
  O       77.170     -50.173     142.666
  O       78.938     -50.713     144.448
  H       78.764     -53.810     140.400
  H       76.935     -51.100     142.866
  H       83.870     -54.899     136.994
  H       82.409     -50.835     141.776
  H       80.940     -51.816     138.356
  H       80.004     -52.027     141.291
  H       77.827     -51.297     140.447
  H       78.999     -49.340     138.827
  H       79.758     -48.108     140.822
  H       86.916     -54.836     140.293
  H       86.345     -53.690     141.498
  H       78.112     -48.720     141.045
  P       76.764     -52.122     138.225
  C       77.362     -54.544     137.610
  O       76.843     -53.681     138.603
  O       76.699     -52.182     136.626
  O       75.686     -51.317     138.863
  H       77.458     -52.665     136.254
  H       77.450     -55.549     138.031
  H       78.351     -54.206     137.291
  H       76.681     -54.579     136.754
  H       78.861     -46.710     145.035
  H       80.160     -47.730     144.464
  H       79.079     -48.307     145.710

 3  4  5  6  7  8  9  10  11  12  22  25  29  30  31  32 0
 6-311+G(2d,p)
 ****
 33  36  37 0
 6-311+G(2d,p)
 ****
 1  2  13  14  15  16  17  18  19  20  21  23  24  26 0
 3-21G
 ****
 27  28  34  35  38  39  40  41  42  43  44  45  46  47  48 0
 3-21G
 ****


