%nproc=1
%NoSave
%Mem=1900MB
#P OB98/GEN NMR

erre ene a

0 1
  C      -39.207    -246.960     -57.839
  O      -38.742    -245.974     -58.745
  H      -39.384    -246.484     -56.871
  H      -38.452    -247.738     -57.712
  H      -40.144    -247.396     -58.193
  P      -38.550    -246.373     -60.288
  C      -39.340    -244.017     -60.994
  O      -38.314    -245.008     -61.101
  C      -38.708    -242.627     -61.072
  O      -37.738    -242.451     -60.014
  C      -37.955    -242.355     -62.371
  O      -38.855    -242.093     -63.438
  C      -37.089    -241.167     -61.964
  O      -37.841    -239.942     -62.011
  C      -36.716    -241.541     -60.511
  N      -35.392    -242.132     -60.389
  C      -34.303    -241.251     -60.510
  O      -34.434    -240.044     -60.737
  N      -33.066    -241.815     -60.393
  C      -32.803    -243.155     -60.281
  O      -31.667    -243.623     -60.273
  C      -33.969    -244.033     -60.188
  C      -35.200    -243.491     -60.242
  O      -39.584    -247.276     -60.859
  O      -37.098    -247.055     -60.316
  H      -37.861    -239.672     -62.950
  H      -37.193    -248.024     -60.401
  H      -32.273    -241.202     -60.494
  H      -33.802    -245.098     -60.080
  H      -36.067    -244.126     -60.181
  H      -36.762    -240.650     -59.867
  H      -36.229    -241.052     -62.611
  H      -37.312    -243.209     -62.608
  H      -39.511    -241.878     -60.927
  H      -39.843    -244.135     -60.020
  H      -40.060    -244.163     -61.798
  P      -38.593    -242.750     -64.882
  C      -41.028    -242.212     -65.532
  O      -39.649    -242.111     -65.903
  O      -38.512    -244.244     -64.895
  O      -37.203    -242.091     -65.342
  H      -36.541    -242.801     -65.474
  H      -41.634    -241.754     -66.285
  H      -41.183    -241.715     -64.597
  H      -41.297    -243.243     -65.436

 6  7  8  9  10  11  12  13  14  15  16  26  31  32  33  34  35 0
 6-311+G(2d,p)
 ****
 36  37 0
 6-311+G(2d,p)
 ****
 1  2  3  4  5  17  18  19  20  21  22  23  24  25 0
 3-21G
 ****
 27  28  29  30  38  39  40  41  42  43  44  45 0
 3-21G
 ****


