%nproc=1
%NoSave
%Mem=1900MB
#P OB98/GEN NMR

erre ene a

0 1
  C      223.646     -20.239     528.239
  O      224.520     -21.344     528.175
  H      222.856     -20.373     527.496
  H      224.195     -19.320     528.006
  H      223.187     -20.150     529.226
  P      225.547     -21.582     529.379
  C      228.086     -21.277     529.739
  O      226.971     -21.002     528.906
  C      229.051     -20.091     529.779
  O      229.580     -19.845     528.452
  C      228.312     -18.809     530.201
  O      229.172     -17.889     530.865
  C      227.880     -18.219     528.873
  O      227.608     -16.820     528.945
  C      229.069     -18.580     527.982
  N      229.478     -16.495     523.355
  C      229.877     -15.990     524.575
  N      230.441     -14.758     524.570
  N      229.723     -16.628     525.708
  C      229.082     -17.817     525.573
  C      228.615     -18.405     524.419
  C      228.831     -17.706     523.170
  O      228.489     -18.095     522.059
  N      227.998     -19.606     524.683
  C      228.078     -19.737     525.993
  N      228.741     -18.680     526.577
  O      225.797     -23.168     529.356
  O      225.090     -21.119     530.730
  H      227.199     -16.558     528.101
  H      226.077     -23.479     530.236
  H      229.639     -15.965     522.513
  H      227.689     -20.568     526.559
  H      229.866     -17.832     528.082
  H      226.952     -18.715     528.563
  H      230.420     -14.165     523.759
  H      227.457     -19.024     530.843
  H      230.467     -14.261     525.466
  H      229.905     -20.312     530.424
  H      228.591     -22.156     529.327
  H      227.751     -21.535     530.748
  P      228.868     -17.566     532.408
  C      227.490     -15.724     533.673
  O      227.760     -16.415     532.461
  O      230.205     -16.852     532.919
  O      228.535     -18.782     533.218
  H      230.723     -17.457     533.468
  H      226.723     -14.997     533.506
  H      228.379     -15.233     534.010
  H      227.164     -16.421     534.416

 6  7  8  9  10  11  12  13  14  15  26  29  33  34 0
 6-311+G(2d,p)
 ****
 36  38  39  40  41 0
 6-311+G(2d,p)
 ****
 1  2  3  4  5  16  17  18  19  20  21  22  23  24  25 0
 3-21G
 ****
 27  28  30  31  32  35  37  42  43  44  45  46  47 0
 3-21G
 ****
 48  49 0
 3-21G
 ****


