%nproc=1
%NoSave
%Mem=1900MB
#P OB98/GEN NMR

erre ene a

0 1
  C      603.119     -38.726     894.880
  O      603.853     -39.934     894.889
  H      603.108     -38.314     895.895
  H      602.086     -38.912     894.570
  H      603.584     -37.998     894.214
  P      604.020     -40.742     893.514
  C      601.464     -40.976     893.146
  O      602.686     -41.640     893.426
  C      600.285     -41.823     893.617
  O      600.160     -43.033     892.841
  C      600.381     -42.309     895.061
  O      600.154     -41.290     896.022
  C      599.286     -43.356     895.061
  O      598.003     -42.719     895.112
  C      599.529     -44.032     893.690
  N      600.363     -45.230     893.786
  C      599.735     -46.404     894.227
  O      598.545     -46.404     894.516
  N      600.492     -47.546     894.357
  C      601.767     -47.509     894.091
  N      602.457     -48.672     894.247
  C      602.464     -46.294     893.645
  C      601.716     -45.199     893.514
  O      605.309     -41.481     893.338
  O      603.747     -39.651     892.372
  H      597.911     -42.336     896.005
  H      603.847     -40.098     891.498
  H      603.529     -46.315     893.471
  H      602.170     -44.265     893.193
  H      598.578     -44.306     893.217
  H      599.339     -44.041     895.912
  H      601.349     -42.807     895.240
  H      599.371     -41.240     893.457
  H      601.949     -49.493     894.554
  H      601.413     -40.795     892.067
  H      603.465     -48.727     894.138
  H      601.435     -40.015     893.665
  P      601.364     -40.967     897.045
  C      600.749     -43.055     898.487
  O      600.970     -41.659     898.433
  O      601.192     -39.403     897.317
  O      602.727     -41.323     896.535
  H      601.814     -38.883     896.768
  H      600.497     -43.338     899.488
  H      601.637     -43.569     898.184
  H      599.945     -43.315     897.830

 6  7  8  9  10  11  12  13  14  15  16  26  30  31  32  33  35 0
 6-311+G(2d,p)
 ****
 37  38 0
 6-311+G(2d,p)
 ****
 1  2  3  4  5  17  18  19  20  21  22  23  24  25 0
 3-21G
 ****
 27  28  29  34  36  39  40  41  42  43  44  45  46 0
 3-21G
 ****


