%nproc=1
%NoSave
%Mem=1900MB
#P OB98/GEN NMR

erre ene a

0 1
  C      -26.682     -21.784      19.003
  O      -27.633     -22.530      19.733
  H      -26.684     -22.130      17.967
  H      -25.682     -21.931      19.420
  H      -26.941     -20.723      19.021
  P      -27.749     -22.217      21.302
  C      -28.705     -20.255      22.711
  O      -28.291     -20.713      21.431
  C      -28.525     -18.744      22.796
  O      -27.129     -18.405      22.630
  C      -29.261     -17.969      21.713
  O      -30.643     -17.837      21.992
  C      -28.522     -16.642      21.756
  O      -29.038     -15.784      22.786
  C      -27.075     -17.077      22.071
  N      -26.213     -17.013      20.896
  C      -25.866     -15.735      20.470
  O      -26.251     -14.710      21.033
  N      -25.089     -15.669      19.347
  C      -24.668     -16.731      18.602
  O      -24.034     -16.600      17.563
  C      -25.052     -18.059      19.108
  C      -25.804     -18.139      20.209
  O      -26.220     -22.113      21.764
  O      -28.510     -23.227      22.093
  H      -25.956     -22.930      22.226
  H      -28.446     -15.008      22.816
  H      -24.837     -14.751      19.017
  H      -24.728     -18.925      18.544
  H      -26.117     -19.106      20.588
  H      -26.641     -16.429      22.843
  H      -28.618     -16.099      20.816
  H      -29.096     -18.434      20.734
  H      -28.843     -18.412      23.793
  H      -28.094     -20.732      23.484
  H      -29.752     -20.534      22.868
  P      -31.669     -17.763      20.762
  C      -32.180     -19.407      18.778
  O      -31.273     -18.955      19.766
  O      -31.161     -16.445      20.014
  O      -33.101     -17.741      21.175
  H      -30.196     -16.334      20.052
  H      -31.732     -20.202      18.220
  H      -32.421     -18.600      18.118
  H      -33.073     -19.761      19.249

 6  7  8  9  10  11  12  13  14  15  16  27  31  32  33  34  35 0
 6-311+G(2d,p)
 ****
 36  37 0
 6-311+G(2d,p)
 ****
 1  2  3  4  5  17  18  19  20  21  22  23  24  25 0
 3-21G
 ****
 26  28  29  30  38  39  40  41  42  43  44  45 0
 3-21G
 ****


