%nproc=1
%NoSave
%Mem=1900MB
#P OB98/GEN NMR

erre ene a

0 1
  C      559.607    -306.289    -317.449
  O      560.999    -306.186    -317.674
  P      561.780    -307.268    -318.578
  C      563.404    -307.735    -316.602
  O      562.454    -308.274    -317.514
  C      564.029    -308.846    -315.793
  O      563.039    -309.443    -314.927
  C      564.619    -309.996    -316.610
  O      565.848    -309.640    -317.205
  C      564.678    -311.099    -315.558
  O      565.830    -310.933    -314.727
  C      563.400    -310.837    -314.738
  N      562.296    -311.721    -315.111
  C      562.234    -312.957    -314.449
  O      563.075    -313.271    -313.610
  N      561.189    -313.815    -314.747
  C      560.314    -313.467    -315.635
  N      559.271    -314.328    -315.842
  C      560.366    -312.197    -316.404
  C      561.370    -311.383    -316.088
  O      562.726    -306.692    -319.567
  O      560.626    -308.163    -319.217
  H      565.801    -311.634    -314.049
  H      560.281    -307.811    -320.074
  H      559.615    -311.974    -317.126
  H      561.468    -310.434    -316.571
  H      563.607    -310.960    -313.678
  H      564.709    -312.105    -316.003
  H      563.913    -310.278    -317.402
  H      564.823    -308.420    -315.150
  H      559.183    -315.095    -315.182
  H      562.884    -307.038    -315.932
  H      558.410    -314.017    -316.283
  H      564.163    -307.171    -317.181
  P      566.413    -310.548    -318.385
  C      568.752    -311.150    -317.433
  O      567.437    -311.582    -317.694
  O      567.341    -309.557    -319.210
  O      565.350    -311.180    -319.242
  H      566.882    -309.248    -320.013
  H      569.238    -311.866    -316.769
  H      568.745    -310.165    -316.952
  H      569.314    -311.111    -318.381
  H      559.285    -305.479    -316.828
  H      559.392    -307.218    -316.963
  H      559.090    -306.248    -318.385

 3  4  5  6  7  8  9  10  11  12  13  23  27  28  29  30  32 0
 6-311+G(2d,p)
 ****
 34  35 0
 6-311+G(2d,p)
 ****
 1  2  14  15  16  17  18  19  20  21  22  24  25  26 0
 3-21G
 ****
 31  33  36  37  38  39  40  41  42  43  44  45  46 0
 3-21G
 ****


