%nproc=1
%NoSave
%Mem=1900MB
#P OB98/GEN NMR

erre ene a

0 1
  C     -174.849     217.525     104.560
  O     -175.987     216.996     103.903
  P     -177.400     216.894     104.648
  C     -177.325     214.363     105.045
  O     -177.342     215.646     105.652
  C     -176.734     213.305     105.981
  O     -176.868     211.994     105.371
  C     -175.247     213.521     106.305
  O     -175.056     213.159     107.678
  C     -174.546     212.533     105.389
  O     -173.249     212.192     105.850
  C     -175.562     211.381     105.385
  N     -175.381     210.488     104.250
  C     -176.299     209.440     104.122
  O     -177.124     209.223     105.011
  N     -176.243     208.658     102.993
  C     -175.249     208.792     102.169
  N     -175.267     208.042     101.030
  C     -174.127     209.724     102.411
  C     -174.278     210.559     103.434
  O     -178.590     216.907     103.746
  O     -177.419     218.152     105.637
  H     -178.234     218.666     105.485
  H     -172.639     212.936     105.661
  H     -173.257     209.709     101.764
  H     -173.522     211.304     103.675
  H     -175.489     210.800     106.313
  H     -174.455     212.960     104.385
  H     -174.927     214.556     106.156
  H     -177.325     213.300     106.902
  H     -176.073     207.449     100.881
  H     -176.714     214.423     104.142
  H     -174.728     208.305     100.206
  H     -178.342     214.082     104.737
  P     -174.306     214.196     108.642
  C     -172.065     212.894     108.467
  O     -172.736     214.130     108.321
  O     -174.387     213.441     110.058
  O     -174.917     215.561     108.765
  H     -174.334     214.102     110.777
  H     -171.001     213.049     108.270
  H     -172.452     212.169     107.748
  H     -172.184     212.515     109.485
  H     -174.012     217.506     103.894
  H     -174.630     216.935     105.425
  H     -175.045     218.534     104.857

 3  4  5  6  7  8  9  10  11  12  13  24  27  28  29  30  32 0
 6-311+G(2d,p)
 ****
 34  35 0
 6-311+G(2d,p)
 ****
 1  2  14  15  16  17  18  19  20  21  22  23  25  26 0
 3-21G
 ****
 31  33  36  37  38  39  40  41  42  43  44  45  46 0
 3-21G
 ****


