%nproc=1
%NoSave
%Mem=1900MB
#P OB98/GEN NMR

erre ene a

0 1
  C      816.469    1099.079     336.648
  O      817.410    1100.062     336.215
  P      818.693    1099.539     335.401
  C      817.958    1100.688     333.152
  O      818.225    1099.488     333.860
  C      818.316    1100.525     331.676
  O      819.724    1100.218     331.526
  C      817.575    1099.382     330.994
  O      816.224    1099.731     330.723
  C      818.443    1099.196     329.745
  O      818.113    1100.180     328.757
  C      819.855    1099.464     330.292
  N      820.626    1098.242     330.506
  C      821.436    1097.836     329.434
  O      821.487    1098.453     328.371
  N      822.158    1096.696     329.640
  C      822.138    1095.921     330.764
  O      822.824    1094.915     330.893
  C      821.240    1096.372     331.834
  C      820.531    1097.495     331.662
  O      818.753    1098.013     335.850
  O      819.929    1100.336     335.677
  H      817.871    1097.620     335.986
  H      817.147    1100.152     328.641
  H      822.764    1096.396     328.887
  H      821.176    1095.758     332.727
  H      819.857    1097.837     332.435
  H      820.422    1100.106     329.607
  H      818.309    1098.215     329.286
  H      817.624    1098.483     331.608
  H      818.111    1101.467     331.174
  H      818.550    1101.507     333.577
  H      816.899    1100.944     333.279
  P      815.096    1098.931     331.548
  C      813.744    1101.037     332.305
  O      814.553    1099.945     332.662
  O      815.998    1097.897     332.377
  O      814.057    1098.305     330.692
  H      816.796    1098.301     332.765
  H      813.209    1101.393     333.189
  H      813.013    1100.748     331.542
  H      814.372    1101.859     331.926
  H      815.669    1099.558     337.174
  H      816.955    1098.381     337.297
  H      816.077    1098.561     335.797

 3  4  5  6  7  8  9  10  11  12  13  24  28  29  30  31  32 0
 6-311+G(2d,p)
 ****
 33  34 0
 6-311+G(2d,p)
 ****
 1  2  14  15  16  17  18  19  20  21  22  23  25  26  27 0
 3-21G
 ****
 35  36  37  38  39  40  41  42  43  44  45 0
 3-21G
 ****


