%nproc=1
%NoSave
%Mem=1900MB
#P OB98/GEN NMR

erre ene a

0 1
  C      168.356    -109.203    -184.870
  O      167.584    -108.729    -185.962
  P      166.364    -109.642    -186.467
  C      164.543    -108.521    -185.013
  O      165.305    -109.694    -185.260
  C      163.048    -108.821    -185.066
  O      162.695    -109.224    -186.419
  C      162.596    -109.944    -184.119
  O      161.375    -109.557    -183.474
  C      162.278    -111.094    -185.058
  O      161.331    -111.996    -184.496
  C      161.777    -110.326    -186.280
  N      159.176    -113.861    -188.778
  C      158.817    -113.122    -187.667
  N      157.619    -113.410    -187.113
  N      159.566    -112.189    -187.143
  C      160.726    -111.986    -187.819
  C      161.185    -112.648    -188.935
  C      160.371    -113.718    -189.467
  O      160.673    -114.470    -190.393
  N      162.396    -112.149    -189.341
  C      162.673    -111.195    -188.475
  N      161.710    -111.089    -187.503
  O      167.001    -111.111    -186.477
  O      165.809    -109.283    -187.801
  H      161.782    -112.470    -183.772
  H      166.907    -111.503    -187.366
  H      158.569    -114.580    -189.127
  H      163.563    -110.578    -188.493
  H      160.776    -109.911    -186.087
  H      163.198    -111.647    -185.277
  H      156.976    -114.090    -187.485
  H      163.340    -110.221    -183.365
  H      157.327    -112.864    -186.310
  H      162.498    -107.895    -184.856
  H      164.783    -107.768    -185.772
  H      164.812    -108.124    -184.028
  P      161.201    -110.035    -181.949
  C      162.339    -107.891    -181.003
  O      162.362    -109.300    -181.129
  O      161.666    -111.562    -181.985
  O      159.816    -109.869    -181.417
  H      161.259    -112.062    -181.254
  H      161.401    -107.460    -181.364
  H      163.168    -107.469    -181.575
  H      162.466    -107.629    -179.950
  H      169.128    -108.497    -184.645
  H      168.797    -110.143    -185.127
  H      167.725    -109.327    -184.014

 3  4  5  6  7  8  9  10  11  12  23  26  30  31  33  0
 6-311+G(2d,p)
 ****
 35  36  37  38 0
 6-311+G(2d,p)
 ****
 1  2  13  14  15  16  17  18  19  20  21  22  24  25  27  28  29 0
 3-21G
 ****
 32  34  39  40  41  42  43  44  45  46  47  48  49 0
 3-21G
 ****


