%nproc=1
%NoSave
%Mem=1900MB
#P OB98/GEN NMR

erre ene a

0 1
  C      295.880      45.851     119.344
  O      295.386      44.564     119.658
  H      296.174      45.869     118.291
  H      296.757      46.078     119.958
  H      295.106      46.604     119.509
  P      294.957      44.320     121.185
  C      296.892      42.596     121.208
  O      295.558      42.891     121.598
  C      296.962      41.224     120.542
  O      298.319      40.912     120.157
  C      296.479      40.074     121.420
  O      295.068      39.951     121.366
  C      297.197      38.894     120.782
  O      296.508      38.448     119.594
  C      298.560      39.503     120.422
  N      301.345      36.191     123.024
  C      300.337      35.980     122.105
  N      299.995      34.695     121.862
  N      299.703      36.942     121.486
  C      300.106      38.177     121.870
  C      301.091      38.517     122.768
  C      301.820      37.441     123.405
  O      302.776      37.561     124.163
  N      301.218      39.878     122.875
  C      300.289      40.357     122.068
  N      299.584      39.365     121.440
  O      293.381      44.042     121.090
  O      295.250      45.443     122.121
  H      296.568      39.141     118.912
  H      292.945      44.453     121.861
  H      301.817      35.411     123.447
  H      300.095      41.408     121.898
  H      298.972      39.068     119.504
  H      297.237      38.035     121.455
  H      300.230      33.949     122.502
  H      296.826      40.194     122.454
  H      299.208      34.546     121.246
  H      296.372      41.275     119.618
  H      297.531      42.603     122.097
  H      297.240      43.363     120.509
  P      294.228      40.262     122.693
  C      293.432      37.871     123.313
  O      293.074      39.153     122.819
  O      293.429      41.594     122.305
  O      295.055      40.470     123.919
  H      293.827      42.362     122.754
  H      292.565      37.244     123.340
  H      293.833      37.968     124.300
  H      294.168      37.434     122.671

 6  7  8  9  10  11  12  13  14  15  26  29  33  34 0
 6-311+G(2d,p)
 ****
 36  38  39  40  41 0
 6-311+G(2d,p)
 ****
 1  2  3  4  5  16  17  18  19  20  21  22  23  24  25 0
 3-21G
 ****
 27  28  30  31  32  35  37  42  43  44  45  46  47 0
 3-21G
 ****
 48  49 0
 3-21G
 ****


