%nproc=1
%NoSave
%Mem=1900MB
#P OB98/GEN NMR

erre ene a

0 1
  C      113.361      10.125    -201.775
  O      114.227       9.031    -201.550
  H      112.826       9.962    -202.713
  H      113.942      11.047    -201.858
  H      112.636      10.212    -200.963
  P      115.048       9.027    -200.171
  C      113.453       7.584    -198.723
  O      114.683       7.647    -199.430
  C      113.608       8.158    -197.316
  O      112.296       8.208    -196.679
  C      114.533       7.343    -196.399
  O      115.226       8.259    -195.542
  C      113.553       6.549    -195.550
  O      114.128       6.102    -194.324
  C      112.438       7.580    -195.390
  N      109.736       6.386    -191.318
  C      110.944       7.047    -191.431
  N      111.525       7.455    -190.282
  N      111.531       7.288    -192.572
  C      110.823       6.855    -193.642
  C      109.623       6.184    -193.664
  C      108.994       5.900    -192.391
  O      107.937       5.302    -192.226
  N      109.245       5.891    -194.951
  C      110.214       6.384    -195.703
  N      111.193       6.977    -194.954
  O      114.282      10.134    -199.305
  O      116.505       9.321    -200.293
  H      114.387       6.893    -193.808
  H      114.716      11.002    -199.408
  H      109.333       6.214    -190.413
  H      110.257       6.334    -196.782
  H      112.689       8.356    -194.657
  H      113.199       5.670    -196.103
  H      111.108       7.345    -189.371
  H      115.253       6.712    -196.929
  H      112.389       7.979    -190.347
  H      113.957       9.194    -197.399
  H      113.139       6.537    -198.650
  H      112.691       8.145    -199.274
  P      116.674       8.769    -195.999
  C      116.340      11.256    -196.679
  O      116.769      10.338    -195.686
  O      116.576       8.734    -197.597
  O      117.806       7.936    -195.497
  H      117.461       8.594    -197.980
  H      116.467      12.256    -196.319
  H      115.307      11.085    -196.901
  H      116.923      11.120    -197.566

 6  7  8  9  10  11  12  13  14  15  26  29  33  34 0
 6-311+G(2d,p)
 ****
 36  38  39  40  41 0
 6-311+G(2d,p)
 ****
 1  2  3  4  5  16  17  18  19  20  21  22  23  24  25 0
 3-21G
 ****
 27  28  30  31  32  35  37  42  43  44  45  46  47 0
 3-21G
 ****
 48  49 0
 3-21G
 ****


