%nproc=1
%NoSave
%Mem=1900MB
#P OB98/GEN NMR

erre ene a

0 1
  C      177.931    -226.001      47.767
  O      178.550    -225.351      46.646
  P      179.995    -224.691      46.879
  C      181.439    -226.338      45.427
  O      180.848    -225.046      45.567
  C      181.595    -226.685      43.950
  O      180.295    -226.897      43.337
  C      182.267    -225.596      43.114
  O      183.662    -225.541      43.356
  C      181.871    -226.031      41.705
  O      182.727    -227.083      41.244
  C      180.437    -226.574      41.934
  N      179.397    -225.656      41.489
  C      179.307    -225.447      40.113
  O      180.069    -225.992      39.300
  N      178.324    -224.593      39.692
  C      177.471    -223.907      40.498
  O      176.594    -223.152      40.067
  C      177.636    -224.115      41.957
  C      178.578    -224.968      42.375
  O      180.596    -225.650      48.016
  O      179.927    -223.243      47.239
  H      180.312    -226.580      47.913
  H      182.427    -227.302      40.336
  H      178.238    -224.439      38.704
  H      176.985    -223.571      42.622
  H      178.727    -225.135      43.439
  H      180.305    -227.521      41.387
  H      181.932    -225.204      40.982
  H      181.810    -224.617      43.340
  H      182.167    -227.624      43.871
  H      180.814    -227.093      45.914
  H      182.409    -226.331      45.937
  P      184.350    -224.091      43.335
  C      184.907    -223.724      45.869
  O      185.363    -224.055      44.578
  O      183.128    -223.162      43.800
  O      184.932    -223.719      42.015
  H      182.638    -223.538      44.558
  H      185.630    -224.083      46.609
  H      183.937    -224.185      46.077
  H      184.822    -222.636      45.966
  H      176.980    -226.393      47.472
  H      177.795    -225.294      48.559
  H      178.556    -226.800      48.106

 3  4  5  6  7  8  9  10  11  12  13  24  28  29  30  31  32 0
 6-311+G(2d,p)
 ****
 33  34 0
 6-311+G(2d,p)
 ****
 1  2  14  15  16  17  18  19  20  21  22  23  25  26  27 0
 3-21G
 ****
 35  36  37  38  39  40  41  42  43  44  45 0
 3-21G
 ****


