%nproc=1
%NoSave
%Mem=1900MB
#P OB98/GEN NMR

erre ene a

0 1
  C      -36.701       4.781      -9.600
  O      -36.241       4.745     -10.939
  P      -35.762       6.115     -11.622
  C      -38.324       6.593     -11.961
  O      -37.038       7.087     -11.634
  C      -39.388       7.660     -11.688
  O      -39.276       8.095     -10.304
  C      -39.278       8.909     -12.572
  O      -40.613       9.366     -12.829
  C      -38.541       9.891     -11.678
  O      -38.744      11.241     -12.063
  C      -39.131       9.529     -10.310
  N      -38.302       9.965      -9.185
  C      -38.326      11.315      -8.846
  O      -38.985      12.161      -9.446
  N      -37.531      11.675      -7.787
  C      -36.686      10.855      -7.099
  O      -35.982      11.235      -6.171
  C      -36.667       9.451      -7.535
  C      -37.469       9.076      -8.533
  O      -35.602       5.662     -13.146
  O      -34.537       6.697     -11.004
  H      -36.266       5.006     -13.420
  H      -38.433      11.812     -11.338
  H      -37.562      12.642      -7.499
  H      -35.997       8.771      -7.022
  H      -37.471       8.047      -8.873
  H      -40.136       9.954     -10.211
  H      -37.466       9.682     -11.718
  H      -38.765       8.710     -13.517
  H      -40.376       7.196     -11.802
  H      -38.539       5.711     -11.352
  H      -38.337       6.289     -13.013
  P      -41.010       9.736     -14.344
  C      -40.835      12.300     -13.847
  O      -40.445      11.204     -14.642
  O      -42.585       9.989     -14.170
  O      -40.702       8.678     -15.352
  H      -42.793      10.570     -13.421
  H      -40.111      13.109     -13.982
  H      -40.865      12.034     -12.787
  H      -41.820      12.653     -14.165
  H      -36.982       3.795      -9.293
  H      -37.548       5.431      -9.531
  H      -35.921       5.144      -8.964

 3  4  5  6  7  8  9  10  11  12  13  24  28  29  30  31  32 0
 6-311+G(2d,p)
 ****
 33  34 0
 6-311+G(2d,p)
 ****
 1  2  14  15  16  17  18  19  20  21  22  23  25  26  27 0
 3-21G
 ****
 35  36  37  38  39  40  41  42  43  44  45 0
 3-21G
 ****


