%nproc=1
%NoSave
%Mem=1900MB
#P OB98/GEN NMR

erre ene a

0 1
  C      -88.605     -70.733     401.955
  O      -89.064     -69.522     401.331
  P      -88.321     -68.106     401.492
  C      -89.563     -67.085     403.527
  O      -89.371     -67.064     402.118
  C      -90.645     -66.090     403.945
  O      -90.285     -64.750     403.552
  C      -92.017     -66.310     403.297
  O      -92.694     -67.429     403.833
  C      -92.692     -64.966     403.580
  O      -93.280     -64.945     404.893
  C      -91.512     -63.984     403.519
  N      -91.552     -63.114     402.349
  C      -92.719     -62.385     402.152
  O      -93.685     -62.538     402.896
  N      -92.772     -61.495     401.103
  C      -91.784     -61.434     400.260
  N      -91.882     -60.523     399.252
  C      -90.588     -62.293     400.354
  C      -90.537     -63.099     401.413
  O      -87.655     -67.624     400.243
  O      -87.255     -68.321     402.671
  H      -86.515     -67.693     402.559
  H      -92.600     -65.282     405.511
  H      -89.803     -62.239     399.606
  H      -89.683     -63.752     401.567
  H      -91.486     -63.359     404.419
  H      -93.489     -64.754     402.861
  H      -91.886     -66.431     402.216
  H      -90.739     -66.123     405.039
  H      -92.716     -59.947     399.225
  H      -88.617     -66.802     404.008
  H      -91.166     -60.380     398.561
  H      -89.821     -68.102     403.841
  P      -92.636     -68.786     402.981
  C      -94.638     -68.153     401.447
  O      -94.111     -69.053     402.397
  O      -92.459     -69.927     404.098
  O      -91.540     -68.840     401.968
  H      -91.845     -70.612     403.770
  H      -95.355     -68.689     400.813
  H      -93.855     -67.727     400.815
  H      -95.159     -67.351     401.969
  H      -89.263     -71.537     401.700
  H      -88.594     -70.605     403.017
  H      -87.617     -70.958     401.613

 3  4  5  6  7  8  9  10  11  12  13  24  27  28  29  30  32 0
 6-311+G(2d,p)
 ****
 34  35 0
 6-311+G(2d,p)
 ****
 1  2  14  15  16  17  18  19  20  21  22  23  25  26 0
 3-21G
 ****
 31  33  36  37  38  39  40  41  42  43  44  45  46 0
 3-21G
 ****


