%nproc=1
%NoSave
%Mem=1900MB
#P OB98/GEN NMR

erre ene a

0 1
  C     -893.570    -958.849    1673.049
  O     -893.540    -958.609    1671.626
  P     -894.050    -959.743    1670.642
  C     -895.740    -958.332    1669.203
  O     -895.540    -959.369    1670.163
  C     -896.380    -957.104    1669.862
  O     -895.510    -956.541    1670.855
  C     -896.650    -955.979    1668.858
  O     -897.880    -956.174    1668.174
  C     -896.780    -954.789    1669.788
  O     -898.110    -954.783    1670.393
  C     -895.700    -955.077    1670.834
  N     -892.890    -950.993    1671.866
  C     -894.150    -951.373    1672.334
  N     -894.730    -950.527    1673.222
  N     -894.750    -952.475    1671.978
  C     -894.040    -953.223    1671.111
  C     -892.790    -952.968    1670.575
  C     -892.150    -951.733    1670.953
  O     -891.050    -951.351    1670.566
  N     -892.420    -953.969    1669.713
  C     -893.410    -954.823    1669.768
  N     -894.440    -954.431    1670.574
  O     -894.310    -960.981    1671.624
  O     -893.100    -960.075    1669.537
  H     -898.280    -955.706    1670.714
  H     -894.180    -961.836    1671.137
  H     -892.470    -950.142    1672.164
  H     -893.440    -955.778    1669.196
  H     -896.000    -954.794    1671.863
  H     -896.670    -953.827    1669.269
  H     -894.290    -949.685    1673.574
  H     -895.810    -955.851    1668.163
  H     -895.620    -950.797    1673.599
  H     -897.320    -957.407    1670.336
  H     -896.370    -958.719    1668.396
  H     -894.760    -958.112    1668.742
  P     -897.880    -956.069    1666.560
  C     -899.180    -958.292    1666.141
  O     -897.950    -957.553    1665.999
  O     -896.370    -955.646    1666.251
  O     -898.850    -955.110    1666.009
  H     -896.330    -955.062    1665.449
  H     -899.100    -959.231    1665.594
  H     -900.000    -957.692    1665.729
  H     -899.380    -958.512    1667.210
  H     -893.194    -957.989    1673.564
  H     -892.961    -959.698    1673.280
  H     -894.577    -959.038    1673.358

 3  4  5  6  7  8  9  10  11  12  23  26  30  31 0
 6-311+G(2d,p)
 ****
 33  35  36  37  38 0
 6-311+G(2d,p)
 ****
 1  2  13  14  15  16  17  18  19  20  21  22  24  25 0
 3-21G
 ****
 27  28  29  32  34  39  40  41  42  43  44  45  46  47  48  49 0
 3-21G
 ****


