%nproc=1
%NoSave
%Mem=1900MB
#P OB98/GEN NMR

erre ene a

0 1
  C      554.626     251.487     -91.434
  O      555.730     250.874     -92.076
  P      555.721     249.278     -92.212
  C      556.978     249.635     -94.463
  O      556.884     248.895     -93.249
  C      557.923     248.952     -95.459
  O      559.270     248.977     -94.925
  C      557.573     247.501     -95.762
  O      557.843     247.258     -97.153
  C      558.554     246.705     -94.921
  O      558.775     245.403     -95.446
  C      559.778     247.634     -94.951
  N      560.691     247.387     -93.835
  C      561.771     246.523     -94.062
  O      561.872     245.949     -95.158
  N      562.663     246.286     -93.053
  C      562.450     246.778     -91.872
  N      563.358     246.521     -90.898
  C      561.252     247.595     -91.544
  C      560.437     247.868     -92.568
  O      554.372     248.995     -93.050
  O      555.734     248.534     -90.913
  H      559.452     244.952     -94.891
  H      553.973     248.142     -92.792
  H      561.097     247.942     -90.532
  H      559.540     248.484     -92.423
  H      560.346     247.502     -95.879
  H      558.163     246.599     -93.891
  H      556.520     247.259     -95.551
  H      557.932     249.550     -96.381
  H      564.161     245.952     -91.146
  H      557.380     250.630     -94.235
  H      563.268     246.861     -89.952
  H      555.982     249.750     -94.892
  P      557.192     245.966     -97.844
  C      557.720     247.102    -100.086
  O      557.818     245.920     -99.310
  O      555.700     246.506     -98.139
  O      557.142     244.692     -97.062
  H      555.162     245.778     -98.519
  H      558.300     246.967    -101.004
  H      558.104     247.953     -99.533
  H      556.659     247.292    -100.361
  H      554.768     252.547     -91.416
  H      554.548     251.120     -90.432
  H      553.729     251.256     -91.969

 3  4  5  6  7  8  9  10  11  12  13  21  23  27  28  29  30  32 0
 6-311+G(2d,p)
 ****
 34  35 0
 6-311+G(2d,p)
 ****
 1  2  14  15  16  17  18  19  20  22  24  25  26 0
 3-21G
 ****
 31  33  36  37  38  39  40  41  42  43  44  45  46 0
 3-21G
 ****


