%nproc=1
%NoSave
%Mem=1900MB
#P OB98/GEN NMR

erre ene a

0 1
  C       29.470      35.311     163.704
  O       30.154      34.157     164.161
  P       31.548      33.778     163.468
  C       30.509      31.722     162.270
  O       31.524      32.207     163.136
  C       30.115      30.291     162.643
  O       31.263      29.414     162.489
  C       29.621      30.145     164.088
  O       28.611      29.128     164.143
  C       30.837      29.618     164.823
  O       30.468      28.927     166.016
  C       31.463      28.735     163.745
  N       34.845      26.689     166.897
  C       33.478      26.512     166.843
  N       32.930      25.752     167.819
  N       32.717      27.026     165.916
  C       33.398      27.769     165.010
  C       34.755      28.004     164.950
  C       35.584      27.440     165.991
  O       36.798      27.582     166.111
  N       35.082      28.776     163.863
  C       33.925      29.046     163.290
  N       32.873      28.485     163.968
  O       32.591      33.891     164.678
  O       31.945      34.668     162.337
  H       30.206      28.025     165.751
  H       33.121      34.704     164.584
  H       35.389      26.282     167.639
  H       33.792      29.654     162.404
  H       30.957      27.763     163.678
  H       31.497      30.449     165.097
  H       33.454      25.385     168.600
  H       29.232      31.070     164.528
  H       31.927      25.643     167.829
  H       29.350      29.943     161.936
  H       30.878      31.735     161.243
  H       29.635      32.380     162.325
  P       27.119      29.636     164.450
  C       26.962      28.571     166.822
  O       26.500      28.581     165.484
  O       26.339      29.331     163.085
  O       27.030      31.070     164.848
  H       25.575      29.930     162.991
  H       26.134      28.828     167.485
  H       27.781      29.280     166.983
  H       27.317      27.565     167.068
  H       28.563      35.431     164.259
  H       29.240      35.201     162.665
  H       30.090      36.172     163.843

 3  4  5  6  7  8  9  10  11  12  23  26  30  31 0
 6-311+G(2d,p)
 ****
 33  35  36  37  38 0
 6-311+G(2d,p)
 ****
 1  2  13  14  15  16  17  18  19  20  21  22  24  25 0
 3-21G
 ****
 27  28  29  32  34  39  40  41  42  43  44  45  46  47  48  49 0
 3-21G
 ****


