%nproc=1
%NoSave
%Mem=1900MB
#P OB98/GEN NMR

erre ene a

0 1
  C     -892.870     798.528    1582.208
  O     -893.440     799.022    1583.405
  P     -894.500     800.209    1583.307
  C     -896.790     799.169    1584.220
  O     -895.600     799.909    1584.487
  C     -897.370     798.688    1585.541
  O     -896.550     797.591    1586.084
  C     -897.480     799.701    1586.637
  O     -898.570     800.604    1586.419
  C     -897.630     798.829    1587.896
  O     -898.980     798.363    1588.009
  C     -896.680     797.641    1587.527
  N     -895.380     797.735    1588.198
  C     -895.220     797.023    1589.345
  O     -896.090     796.311    1589.877
  N     -893.950     797.123    1589.949
  C     -892.950     797.903    1589.582
  O     -891.870     798.018    1590.172
  C     -893.170     798.694    1588.309
  C     -894.360     798.601    1587.681
  O     -895.290     799.839    1581.947
  O     -893.900     801.581    1583.346
  H     -895.230     798.873    1581.772
  H     -899.050     797.890    1588.867
  H     -893.790     796.599    1590.784
  H     -892.350     799.330    1587.970
  H     -894.560     799.158    1586.758
  H     -897.150     796.702    1587.849
  H     -897.340     799.339    1588.829
  H     -896.530     800.315    1586.706
  H     -898.380     798.248    1585.286
  H     -896.530     798.293    1583.585
  H     -897.480     799.820    1583.713
  P     -898.780     801.799    1587.526
  C     -897.440     803.724    1586.301
  O     -898.690     803.153    1586.693
  O     -897.350     801.753    1588.314
  O     -900.000     801.639    1588.363
  H     -896.630     801.595    1587.706
  H     -897.580     804.390    1585.438
  H     -896.770     802.922    1585.955
  H     -896.980     804.246    1587.145
  H     -892.184     797.740    1582.438
  H     -892.351     799.318    1581.708
  H     -893.645     798.152    1581.573

 3  4  5  6  7  8  9  10  11  12  13  24  28  29  30  31  32 0
 6-311+G(2d,p)
 ****
 33  34 0
 6-311+G(2d,p)
 ****
 1  2  14  15  16  17  18  19  20  21  22  23  25  26  27 0
 3-21G
 ****
 35  36  37  38  39  40  41  42  43  44  45 0
 3-21G
 ****


