%nproc=1
%NoSave
%Mem=1900MB
#P OB98/GEN NMR

erre ene a

0 1
  C      221.227    -582.406     579.554
  O      222.239    -581.575     580.084
  H      221.532    -582.731     578.549
  H      220.283    -581.861     579.466
  H      221.085    -583.289     580.176
  P      222.017    -580.957     581.553
  C      224.029    -582.222     582.589
  O      222.613    -582.051     582.574
  C      224.635    -581.466     583.765
  O      224.158    -582.019     585.004
  C      226.165    -581.533     583.806
  O      226.727    -580.569     582.926
  C      226.407    -581.195     585.281
  O      226.235    -579.784     585.486
  C      225.270    -581.978     585.964
  N      227.832    -584.893     589.229
  C      227.764    -583.516     589.141
  N      228.522    -582.821     590.000
  N      227.039    -582.882     588.251
  C      226.387    -583.707     587.397
  C      226.377    -585.084     587.391
  C      227.146    -585.774     588.407
  O      227.220    -587.006     588.545
  N      225.641    -585.585     586.339
  C      225.180    -584.514     585.740
  N      225.600    -583.344     586.344
  O      220.626    -580.513     581.885
  O      223.074    -579.759     581.632
  H      226.414    -579.617     586.439
  H      222.669    -578.913     581.362
  H      228.420    -585.310     589.926
  H      224.520    -584.509     584.881
  H      224.901    -581.479     586.859
  H      227.406    -581.459     585.616
  H      229.302    -583.236     590.493
  H      226.533    -582.542     583.621
  H      228.536    -581.795     589.904
  H      224.280    -580.430     583.723
  H      224.414    -581.835     581.646
  H      224.274    -583.289     582.661
  P      227.134    -580.965     581.414
  C      226.101    -578.707     580.688
  O      226.141    -580.123     580.487
  O      227.137    -582.444     581.150
  O      228.551    -580.254     581.179
  H      229.315    -580.805     581.458
  H      225.401    -578.270     580.007
  H      227.073    -578.294     580.514
  H      225.800    -578.498     581.693

 6  7  8  9  10  11  12  13  14  15  26  29  33  34 0
 6-311+G(2d,p)
 ****
 36  38  39  40  41 0
 6-311+G(2d,p)
 ****
 1  2  3  4  5  16  17  18  19  20  21  22  23  24  25 0
 3-21G
 ****
 27  28  30  31  32  35  37  42  43  44  45  46  47 0
 3-21G
 ****
 48  49 0
 3-21G
 ****


