%nproc=1
%NoSave
%Mem=1900MB
#P OB98/GEN NMR

erre ene a

0 1
  C     -850.717      98.123    -495.546
  O     -850.517      96.856    -496.147
  H     -849.862      98.342    -494.904
  H     -851.630      98.104    -494.944
  H     -850.787      98.906    -496.304
  P     -851.441      96.431    -497.382
  C     -852.979      95.004    -495.873
  O     -852.892      96.093    -496.791
  C     -854.429      94.787    -495.425
  O     -855.294      94.810    -496.597
  C     -854.615      93.416    -494.763
  O     -855.673      93.425    -493.802
  C     -854.991      92.521    -495.924
  O     -855.703      91.350    -495.525
  C     -855.826      93.481    -496.784
  N     -857.102      90.094    -500.378
  C     -857.120      89.959    -499.004
  N     -857.544      88.767    -498.522
  N     -856.747      90.898    -498.181
  C     -856.287      92.006    -498.792
  C     -856.181      92.253    -500.146
  C     -856.637      91.216    -501.052
  O     -856.628      91.282    -502.281
  N     -855.648      93.498    -500.390
  C     -855.425      93.995    -499.207
  N     -855.810      93.148    -498.197
  O     -850.880      94.978    -497.791
  O     -851.429      97.374    -498.550
  H     -856.582      91.615    -495.227
  H     -851.112      94.779    -498.713
  H     -857.425      89.351    -500.960
  H     -854.992      94.980    -499.004
  H     -856.873      93.487    -496.451
  H     -854.080      92.193    -496.416
  H     -857.648      87.951    -499.124
  H     -853.706      93.063    -494.281
  H     -857.271      88.542    -497.552
  H     -854.754      95.614    -494.778
  H     -852.344      95.253    -495.027
  H     -852.573      94.095    -496.323
  P     -855.310      93.478    -492.254
  C     -855.340      90.845    -491.998
  O     -854.698      92.082    -491.780
  O     -856.739      93.531    -491.519
  O     -854.443      94.647    -491.863
  H     -856.854      94.383    -491.060
  H     -854.741      90.056    -491.594
  H     -855.470      90.691    -493.049
  H     -856.296      90.849    -491.517

 6  7  8  9  10  11  12  13  14  15  26  29  33  34 0
 6-311+G(2d,p)
 ****
 36  38  39  40  41 0
 6-311+G(2d,p)
 ****
 1  2  3  4  5  16  17  18  19  20  21  22  23  24  25 0
 3-21G
 ****
 27  28  30  31  32  35  37  42  43  44  45  46  47 0
 3-21G
 ****
 48  49 0
 3-21G
 ****


