%nproc=1
%NoSave
%Mem=1900MB
#P OB98/GEN NMR

erre ene a

0 1
  C     -815.424    1112.190     -33.058
  O     -816.570    1111.390     -33.338
  P     -817.586    1110.956     -32.172
  C     -816.688    1108.560     -32.027
  O     -816.819    1109.808     -31.359
  C     -816.673    1107.416     -31.005
  O     -815.442    1107.481     -30.253
  C     -817.779    1107.453     -29.953
  O     -819.007    1106.872     -30.374
  C     -817.162    1106.584     -28.865
  O     -817.308    1105.200     -29.206
  C     -815.692    1107.004     -28.913
  N     -813.635    1107.937     -24.315
  C     -813.780    1106.795     -25.025
  N     -814.372    1106.621     -26.234
  C     -814.770    1107.799     -26.728
  C     -814.680    1109.046     -26.144
  C     -814.067    1109.098     -24.876
  N     -813.904    1110.271     -24.166
  N     -815.230    1110.026     -26.950
  C     -815.624    1109.376     -28.023
  N     -815.351    1108.035     -27.947
  O     -818.962    1110.615     -32.652
  O     -817.558    1112.191     -31.155
  H     -816.696    1105.013     -29.944
  H     -818.352    1112.150     -30.556
  H     -813.395    1105.888     -24.550
  H     -816.104    1109.828     -28.881
  H     -815.012    1106.156     -28.742
  H     -817.636    1106.726     -27.886
  H     -817.924    1108.466     -29.565
  H     -816.682    1106.467     -31.551
  H     -815.735    1108.554     -32.563
  H     -813.336    1110.216     -23.310
  H     -814.074    1111.149     -24.629
  H     -817.489    1108.422     -32.750
  P     -820.359    1107.707     -30.042
  C     -820.449    1106.530     -27.716
  O     -820.472    1107.737     -28.452
  O     -821.546    1107.231     -30.781
  O     -819.936    1109.211     -30.411
  H     -819.264    1109.608     -29.833
  H     -820.379    1106.771     -26.642
  H     -819.586    1105.915     -27.988
  H     -821.372    1105.966     -27.882
  H     -814.882    1112.366     -33.964
  H     -814.795    1111.679     -32.359
  H     -815.735    1113.125     -32.641

 3  4  5  6  7  8  9  10  11  12  22  25  29  30  31  32 0
 6-311+G(2d,p)
 ****
 33  36  37 0
 6-311+G(2d,p)
 ****
 1  2  13  14  15  16  17  18  19  20  21  23  24  26 0
 3-21G
 ****
 27  28  34  35  38  39  40  41  42  43  44  45  46  47  48 0
 3-21G
 ****


