%nproc=1
%NoSave
%Mem=1900MB
#P OB98/GEN NMR

erre ene a

0 1
  C     -621.159     -86.819     178.904
  O     -619.965     -86.098     178.655
  H     -621.033     -87.842     178.541
  H     -621.996     -86.352     178.375
  H     -621.366     -86.847     179.979
  P     -619.930     -84.567     179.136
  C     -621.265     -83.509     177.170
  O     -621.252     -83.876     178.544
  C     -621.874     -82.123     177.014
  O     -623.256     -82.146     177.426
  C     -621.207     -81.053     177.865
  O     -619.990     -80.598     177.312
  C     -622.293     -79.991     177.908
  O     -622.259     -79.158     176.738
  C     -623.580     -80.823     177.921
  N     -625.837     -78.166     181.659
  C     -625.461     -77.823     180.408
  N     -624.867     -78.597     179.467
  C     -624.714     -79.855     179.917
  C     -625.060     -80.351     181.165
  C     -625.648     -79.448     182.062
  N     -626.018     -79.792     183.339
  N     -624.705     -81.681     181.265
  C     -624.169     -81.988     180.102
  N     -624.152     -80.912     179.253
  O     -618.746     -83.939     178.262
  O     -619.711     -84.373     180.599
  H     -622.994     -78.518     176.834
  H     -617.935     -83.887     178.806
  H     -625.633     -76.788     180.131
  H     -623.767     -82.958     179.829
  H     -624.352     -80.411     177.265
  H     -622.180     -79.347     178.777
  H     -621.051     -81.435     178.889
  H     -621.843     -81.840     175.946
  H     -621.861     -84.235     176.607
  H     -620.236     -83.523     176.784
  H     -626.371     -79.076     183.951
  H     -625.777     -80.714     183.688
  P     -618.759     -80.342     178.313
  C     -619.009     -77.751     178.522
  O     -619.098     -79.021     179.160
  O     -617.572     -79.880     177.350
  O     -618.382     -81.528     179.139
  H     -616.714     -80.224     177.695
  H     -619.265     -76.982     179.221
  H     -619.685     -77.720     177.694
  H     -618.010     -77.597     178.172

 6  7  8  9  10  11  12  13  14  15  25  28  32  33  34  35 0
 6-311+G(2d,p)
 ****
 36  37  40 0
 6-311+G(2d,p)
 ****
 1  2  3  4  5  16  17  18  19  20  21  22  23  24 0
 3-21G
 ****
 26  27  29  30  31  38  39 41  42  43  44  45  46  47  48 0
 3-21G
 ****


