%nproc=1
%NoSave
%Mem=1900MB
#P OB98/GEN NMR

erre ene a

0 1
  C       48.948     -73.033     -92.539
  O       49.432     -72.751     -93.836
  H       49.784     -73.071     -91.837
  H       48.270     -72.231     -92.234
  H       48.403     -73.980     -92.523
  P       50.202     -73.931     -94.604
  C       50.826     -74.119     -97.116
  O       50.768     -73.290     -95.966
  C       50.199     -73.413     -98.316
  O       48.763     -73.313     -98.095
  C       50.735     -71.995     -98.567
  O       50.841     -71.794     -99.980
  C       49.633     -71.105     -98.023
  O       49.617     -69.817     -98.627
  C       48.395     -71.942     -98.328
  N       43.518     -70.508     -98.401
  C       44.299     -71.096     -99.331
  N       45.581     -71.497     -99.211
  C       46.025     -71.297     -97.958
  C       45.345     -70.715     -96.902
  C       44.031     -70.291     -97.167
  N       43.251     -69.629     -96.247
  N       46.162     -70.634     -95.790
  C       47.319     -71.133     -96.178
  N       47.285     -71.545     -97.480
  O       48.995     -74.861     -95.100
  O       51.194     -74.689     -93.789
  H       50.525     -69.457     -98.628
  H       48.772     -75.506     -94.405
  H       43.839     -71.258    -100.303
  H       48.212     -71.191     -95.572
  H       48.066     -71.844     -99.370
  H       49.765     -70.977     -96.942
  H       51.704     -71.799     -98.093
  H       50.342     -74.042     -99.203
  H       50.272     -75.043     -96.919
  H       42.363     -69.268     -96.560
  H       43.657     -69.363     -95.362
  H       51.870     -74.373     -97.327
  P       52.308     -71.846    -100.626
  C       53.116     -72.577    -102.990
  O       52.161     -71.854    -102.221
  O       52.803     -73.331    -100.293
  O       53.245     -70.818    -100.081
  H       53.766     -73.343    -100.154
  H       52.881     -72.484    -104.030
  H       53.092     -73.609    -102.709
  H       54.093     -72.181    -102.809

 6  7  8  9  10  11  12  13  14  15  25  28  32  33  34  35 0
 6-311+G(2d,p)
 ****
 36  39  40 0
 6-311+G(2d,p)
 ****
 1  2  3  4  5  16  17  18  19  20  21  22  23  24 0
 3-21G
 ****
 26  27  29  30  31  37  38  41  42  43  44  45  46  47 0
 3-21G
 ****
 48 0
 3-21G
 ****


