%nproc=1
%NoSave
%Mem=1900MB
#P OB98/GEN NMR

erre ene a

0 1
  C      226.718    -213.008      -5.822
  O      227.166    -212.669      -7.118
  H      226.697    -212.104      -5.207
  H      227.397    -213.731      -5.359
  H      225.708    -213.428      -5.869
  P      227.365    -213.890      -8.144
  C      229.774    -214.374      -7.263
  O      228.436    -214.831      -7.401
  C      230.727    -215.566      -7.260
  O      230.404    -216.476      -6.183
  C      230.674    -216.407      -8.533
  O      231.392    -215.825      -9.610
  C      231.330    -217.686      -8.041
  O      232.752    -217.495      -7.949
  C      230.697    -217.825      -6.637
  N      229.482    -218.643      -6.634
  C      229.586    -219.920      -6.073
  O      230.659    -220.321      -5.621
  N      228.475    -220.732      -6.064
  C      227.357    -220.307      -6.564
  N      226.298    -221.158      -6.545
  C      227.199    -218.963      -7.149
  C      228.286    -218.194      -7.154
  O      228.228    -213.249      -9.330
  O      226.121    -214.582      -8.591
  H      233.139    -218.356      -7.710
  H      228.512    -213.957      -9.958
  H      226.249    -218.654      -7.564
  H      228.246    -217.194      -7.568
  H      231.411    -218.259      -5.927
  H      231.161    -218.536      -8.704
  H      229.643    -216.632      -8.826
  H      231.741    -215.188      -7.076
  H      226.451    -222.095      -6.193
  H      229.854    -213.825      -6.319
  H      225.445    -220.982      -7.067
  H      230.033    -213.706      -8.091
  P      230.600    -215.580     -10.986
  C      230.966    -218.010     -11.831
  O      230.033    -217.004     -11.461
  O      231.775    -215.288     -12.031
  O      229.591    -214.471     -10.946
  H      231.519    -214.591     -12.663
  H      230.440    -218.895     -12.122
  H      231.602    -218.230     -10.999
  H      231.559    -217.662     -12.651

 6  7  8  9  10  11  12  13  14  15  16  26  30  31  32  33  35 0
 6-311+G(2d,p)
 ****
 37  38 0
 6-311+G(2d,p)
 ****
 1  2  3  4  5  17  18  19  20  21  22  23  24  25 0
 3-21G
 ****
 27  28  29  34  36  39  40  41  42  43  44  45  46 0
 3-21G
 ****


