%nproc=1
%NoSave
%Mem=1900MB
#P OB98/GEN NMR

erre ene a

0 1
  C       -7.167    -194.037    -484.746
  O       -6.599    -195.271    -485.135
  H       -7.721    -194.177    -483.817
  H       -7.860    -193.678    -485.513
  H       -6.377    -193.294    -484.584
  P       -5.837    -195.298    -486.549
  C       -4.301    -197.124    -487.611
  O       -4.864    -196.573    -486.427
  C       -2.824    -197.437    -487.393
  O       -2.122    -196.277    -486.904
  C       -2.554    -198.533    -486.354
  O       -2.785    -199.842    -486.853
  C       -1.084    -198.276    -486.087
  O       -0.295    -198.759    -487.186
  C       -1.063    -196.728    -486.013
  N       -1.269    -196.219    -484.656
  C       -0.136    -196.126    -483.841
  O        0.973    -196.475    -484.261
  N       -0.288    -195.679    -482.545
  C       -1.464    -195.327    -482.116
  N       -1.547    -194.898    -480.829
  C       -2.679    -195.392    -482.949
  C       -2.520    -195.840    -484.196
  O       -4.811    -194.064    -486.443
  O       -6.701    -195.277    -487.764
  H        0.615    -198.444    -487.037
  H       -4.189    -194.084    -487.211
  H       -3.632    -195.107    -482.531
  H       -3.364    -195.903    -484.863
  H       -0.121    -196.327    -486.403
  H       -0.717    -198.774    -485.182
  H       -3.125    -198.367    -485.435
  H       -2.392    -197.696    -488.369
  H       -0.709    -194.925    -480.263
  H       -4.415    -196.393    -488.427
  H       -2.433    -194.745    -480.354
  H       -4.828    -198.044    -487.895
  P       -2.531    -201.064    -485.847
  C       -3.415    -203.502    -485.634
  O       -3.503    -202.255    -486.299
  O       -3.186    -200.556    -484.480
  O       -1.089    -201.449    -485.665
  H       -2.692    -200.884    -483.704
  H       -4.127    -204.181    -486.054
  H       -3.622    -203.367    -484.593
  H       -2.429    -203.901    -485.752

 6  7  8  9  10  11  12  13  14  15  16  26  30  31  32  33  35 0
 6-311+G(2d,p)
 ****
 37  38 0
 6-311+G(2d,p)
 ****
 1  2  3  4  5  17  18  19  20  21  22  23  24  25 0
 3-21G
 ****
 27  28  29  34  36  39  40  41  42  43  44  45  46 0
 3-21G
 ****


