%nproc=1
%NoSave
%Mem=1900MB
#P OB98/GEN NMR

erre ene a

0 1
  C     -152.763     393.351    -173.659
  O     -152.511     393.449    -172.269
  P     -151.776     392.205    -171.561
  C     -152.206     389.645    -171.507
  O     -152.743     390.940    -171.745
  C     -153.272     388.562    -171.677
  O     -153.499     388.333    -173.085
  C     -152.911     387.220    -171.033
  O     -154.106     386.653    -170.490
  C     -152.454     386.375    -172.207
  O     -152.600     384.982    -171.945
  C     -153.353     386.921    -173.332
  N     -152.798     386.659    -174.658
  C     -153.102     385.422    -175.236
  O     -153.735     384.586    -174.601
  N     -152.625     385.151    -176.495
  C     -151.832     385.995    -177.080
  N     -151.395     385.678    -178.333
  C     -151.387     387.255    -176.452
  C     -151.922     387.530    -175.260
  O     -151.912     392.553    -170.005
  O     -150.355     392.006    -171.975
  H     -151.919     384.721    -171.289
  H     -151.144     392.215    -169.505
  H     -150.695     387.906    -176.965
  H     -151.673     388.441    -174.733
  H     -154.350     386.466    -173.279
  H     -151.397     386.579    -172.425
  H     -152.157     387.318    -170.241
  H     -154.212     388.940    -171.254
  H     -151.698     384.805    -178.730
  H     -151.828     389.593    -170.485
  H     -150.772     386.277    -178.858
  H     -151.365     389.470    -172.188
  P     -153.958     385.433    -169.462
  C     -152.776     383.153    -169.585
  O     -153.294     384.248    -170.318
  O     -155.472     384.935    -169.335
  O     -153.366     385.708    -168.116
  H     -155.530     384.212    -168.677
  H     -152.486     382.367    -170.291
  H     -153.528     382.758    -168.904
  H     -151.890     383.469    -169.022
  H     -153.252     394.241    -173.996
  H     -153.390     392.505    -173.849
  H     -151.837     393.233    -174.182

 3  4  5  6  7  8  9  10  11  12  13  21  23  27  28  29  30  32 0
 6-311+G(2d,p)
 ****
 34  35 0
 6-311+G(2d,p)
 ****
 1  2  14  15  16  17  18  19  20  22  24  25  26 0
 3-21G
 ****
 31  33  36  37  38  39  40  41  42  43  44  45  46 0
 3-21G
 ****


