%nproc=1
%NoSave
%Mem=1900MB
#P OB98/GEN NMR

erre ene a

0 1
  C       20.391    -145.391     167.604
  O       19.818    -146.512     166.957
  H       20.508    -145.622     168.665
  H       19.734    -144.524     167.502
  H       21.372    -145.168     167.178
  P       19.581    -146.384     165.376
  C       17.002    -146.706     165.287
  O       18.283    -147.267     165.040
  C       15.939    -147.797     165.219
  O       15.925    -148.378     163.892
  C       16.186    -148.959     166.166
  O       15.811    -148.658     167.500
  C       15.339    -150.048     165.526
  O       13.964    -149.943     165.923
  C       15.486    -149.749     164.032
  N       16.197    -154.506     162.315
  C       15.114    -153.884     162.829
  N       15.002    -152.608     163.255
  C       16.160    -151.948     163.074
  C       17.344    -152.446     162.560
  C       17.339    -153.792     162.163
  N       18.447    -154.434     161.663
  N       18.325    -151.474     162.571
  C       17.744    -150.407     163.074
  N       16.433    -150.641     163.388
  O       20.790    -147.232     164.758
  O       19.554    -144.987     164.850
  H       13.493    -150.667     165.466
  H       21.497    -146.625     164.467
  H       14.222    -154.497     162.925
  H       18.224    -149.448     163.235
  H       14.535    -149.844     163.492
  H       15.693    -151.037     165.816
  H       17.241    -149.265     166.124
  H       14.955    -147.342     165.403
  H       16.786    -145.943     164.531
  H       17.003    -146.233     166.275
  H       18.392    -155.419     161.465
  H       19.335    -153.943     161.653
  P       16.917    -148.833     168.644
  C       14.984    -148.572     170.370
  O       16.307    -148.224     169.992
  O       18.059    -147.784     168.235
  O       17.460    -150.217     168.779
  H       18.937    -148.145     168.459
  H       14.735    -148.082     171.288
  H       14.918    -149.632     170.502
  H       14.302    -148.264     169.605

 6  7  8  9  10  11  12  13  14  15  25  28  32  33  34  35 0
 6-311+G(2d,p)
 ****
 36  37  40 0
 6-311+G(2d,p)
 ****
 1  2  3  4  5  16  17  18  19  20  21  22  23  24 0
 3-21G
 ****
 26  27  29  30  31  38  39 41  42  43  44  45  46  47  48 0
 3-21G
 ****


