%nproc=1
%NoSave
%Mem=1900MB
#P OB98/GEN NMR

erre ene a

0 1
  C     -469.833    -454.760     -53.020
  O     -469.891    -453.539     -52.310
  H     -469.151    -455.439     -52.500
  H     -469.459    -454.586     -54.034
  H     -470.825    -455.220     -53.065
  P     -470.877    -452.417     -52.895
  C     -468.778    -450.893     -53.168
  O     -470.114    -451.018     -52.699
  C     -467.838    -450.579     -51.997
  O     -468.142    -449.243     -51.501
  C     -467.990    -451.547     -50.810
  O     -466.717    -451.651     -50.145
  C     -468.959    -450.792     -49.916
  O     -468.942    -451.317     -48.613
  C     -468.417    -449.376     -50.089
  N     -470.188    -446.828     -46.042
  C     -469.189    -447.730     -46.178
  N     -468.775    -448.359     -47.295
  C     -469.488    -447.948     -48.357
  C     -470.534    -447.041     -48.378
  C     -470.888    -446.468     -47.143
  N     -471.919    -445.570     -46.997
  N     -471.032    -446.903     -49.664
  C     -470.295    -447.710     -50.402
  N     -469.349    -448.358     -49.656
  O     -472.053    -452.365     -51.811
  O     -471.394    -452.664     -54.271
  H     -469.569    -450.842     -48.029
  H     -472.776    -452.963     -52.073
  H     -468.657    -447.978     -45.261
  H     -470.406    -447.869     -51.468
  H     -467.478    -449.215     -49.545
  H     -469.983    -450.872     -50.293
  H     -468.334    -452.544     -51.099
  H     -466.805    -450.556     -52.364
  H     -468.742    -450.089     -53.906
  H     -468.472    -451.830     -53.641
  H     -472.128    -445.227     -46.075
  H     -472.472    -445.318     -47.806
  P     -465.831    -452.973     -50.358
  C     -465.702    -453.425     -47.789
  O     -465.009    -453.320     -49.021
  O     -464.674    -452.443     -51.335
  O     -466.543    -454.129     -50.979
  H     -464.542    -453.086     -52.059
  H     -465.009    -453.659     -47.009
  H     -466.437    -454.200     -47.858
  H     -466.184    -452.495     -47.571

 6  7  8  9  10  11  12  13  14  15  25  28  32  33  34  35 0
 6-311+G(2d,p)
 ****
 36  37  40 0
 6-311+G(2d,p)
 ****
 1  2  3  4  5  16  17  18  19  20  21  22  23  24 0
 3-21G
 ****
 26  27  29  30  31  38  39 41  42  43  44  45  46  47  48 0
 3-21G
 ****


