%nproc=1
%NoSave
%Mem=1900MB
#P OB98/GEN NMR

erre ene a

0 1
  C     -896.940    -797.270    -898.910
  O     -895.630    -797.611    -898.500
  H     -897.620    -798.003    -898.490
  H     -896.990    -797.276    -900.000
  H     -897.230    -796.279    -898.550
  P     -894.460    -796.529    -898.690
  C     -893.220    -796.914    -896.460
  O     -894.030    -796.036    -897.240
  C     -893.940    -797.371    -895.190
  O     -895.140    -798.144    -895.600
  C     -893.070    -798.306    -894.320
  O     -893.420    -798.258    -892.940
  C     -893.420    -799.701    -894.890
  O     -893.160    -800.749    -893.960
  C     -894.920    -799.509    -895.220
  N     -898.590    -802.645    -896.870
  C     -898.430    -802.076    -895.590
  N     -899.340    -802.390    -894.660
  N     -897.390    -801.302    -895.260
  C     -896.530    -801.146    -896.310
  C     -896.580    -801.658    -897.590
  C     -897.710    -802.480    -897.920
  O     -897.910    -803.040    -899.010
  N     -895.500    -801.267    -898.330
  C     -894.790    -800.553    -897.510
  N     -895.370    -800.389    -896.260
  O     -895.220    -795.248    -899.290
  O     -893.330    -796.953    -899.580
  H     -893.280    -801.592    -894.440
  H     -894.580    -794.664    -899.760
  H     -899.400    -803.212    -897.040
  H     -893.830    -800.045    -897.760
  H     -895.510    -799.721    -894.310
  H     -892.810    -799.879    -895.780
  H     -900.000    -803.169    -894.820
  H     -892.000    -798.121    -894.460
  H     -899.060    -802.272    -893.690
  H     -894.300    -796.501    -894.630
  H     -892.310    -796.350    -896.190
  H     -892.890    -797.769    -897.070
  P     -893.080    -796.930    -892.120
  C     -895.290    -795.953    -891.000
  O     -894.370    -795.974    -892.090
  O     -892.050    -796.132    -893.090
  O     -892.480    -797.153    -890.780
  H     -891.170    -796.051    -892.670
  H     -896.065    -795.243    -891.201
  H     -894.775    -795.675    -890.104
  H     -895.720    -796.925    -890.877

 6  7  8  9  10  11  12  13  14  15  26  29  33  34 0
 6-311+G(2d,p)
 ****
 36  38  39  40  41 0
 6-311+G(2d,p)
 ****
 1  2  3  4  5  16  17  18  19  20  21  22  23  24  25 0
 3-21G
 ****
 27  28  30  31  32  35  37  42  43  44  45  46  47 0
 3-21G
 ****
 48  49 0
 3-21G
 ****


