%nproc=1
%NoSave
%Mem=1900MB
#P OB98/GEN NMR

erre ene a

0 1
  C     -274.217      83.558      89.523
  O     -273.647      83.079      88.306
  P     -272.357      82.137      88.414
  C     -273.072      79.612      88.315
  O     -272.674      80.780      87.621
  C     -273.130      78.396      87.371
  O     -274.289      78.543      86.507
  C     -271.939      78.246      86.431
  O     -271.911      76.904      85.939
  C     -272.312      79.187      85.304
  O     -271.568      78.914      84.122
  C     -273.841      78.981      85.196
  N     -274.574      80.201      84.794
  C     -274.919      80.354      83.448
  O     -274.647      79.533      82.572
  N     -275.562      81.517      83.119
  C     -275.926      82.503      83.990
  O     -276.427      83.564      83.627
  C     -275.668      82.228      85.406
  C     -275.007      81.119      85.738
  O     -272.339      81.699      89.949
  O     -271.087      82.806      88.003
  H     -271.699      77.960      83.918
  H     -271.637      82.178      90.432
  H     -275.756      81.671      82.141
  H     -276.004      82.960      86.134
  H     -274.790      80.909      86.783
  H     -274.084      78.200      84.466
  H     -272.092      80.217      85.598
  H     -270.974      78.501      86.873
  H     -273.273      77.486      87.967
  H     -274.045      79.775      88.789
  H     -272.360      79.411      89.127
  P     -270.511      76.123      85.960
  C     -270.667      75.632      88.481
  O     -270.591      75.080      87.178
  O     -269.286      76.972      85.919
  O     -270.616      75.167      84.678
  H     -269.722      74.867      84.416
  H     -271.217      74.939      89.125
  H     -271.178      76.596      88.478
  H     -269.654      75.756      88.876
  H     -275.066      84.171      89.302
  H     -273.489      84.135      90.055
  H     -274.523      82.728      90.125

 3  4  5  6  7  8  9  10  11  12  13  23  28  29  30  31  32 0
 6-311+G(2d,p)
 ****
 33  34 0
 6-311+G(2d,p)
 ****
 1  2  14  15  16  17  18  19  20  21  22  24  25  26  27 0
 3-21G
 ****
 35  36  37  38  39  40  41  42  43  44  45 0
 3-21G
 ****


