%nproc=1
%NoSave
%Mem=1900MB
#P OB98/GEN NMR

erre ene a

0 1
  C      123.519     238.667     275.082
  O      124.380     237.565     274.843
  P      125.821     237.584     275.561
  C      125.392     235.266     276.652
  O      125.691     236.641     276.853
  C      125.468     234.477     277.964
  O      125.075     233.107     277.712
  C      126.861     234.463     278.597
  O      126.693     234.523     280.017
  C      127.406     233.099     278.221
  O      128.412     232.660     279.134
  C      126.125     232.255     278.216
  N      126.263     231.046     277.412
  C      126.822     229.926     278.038
  O      127.241     230.016     279.193
  N      126.938     228.758     277.330
  C      126.624     228.736     276.073
  N      126.754     227.553     275.414
  C      126.147     229.927     275.341
  C      125.972     231.028     276.067
  O      125.893     239.054     276.183
  O      126.969     237.290     274.653
  H      128.746     231.791     278.830
  H      126.813     239.383     276.195
  H      125.933     229.862     274.282
  H      125.600     231.941     275.618
  H      125.848     231.963     279.239
  H      127.846     233.135     277.218
  H      127.490     235.294     278.266
  H      124.740     234.906     278.661
  H      127.098     226.755     275.933
  H      126.122     234.839     275.951
  H      126.536     227.441     274.433
  H      124.396     235.172     276.201
  P      127.898     235.137     280.880
  C      126.808     237.460     280.885
  O      127.933     236.694     280.496
  O      129.176     234.584     280.087
  O      127.971     234.796     282.331
  H      129.989     234.838     280.557
  H      127.019     238.516     280.686
  H      126.609     237.340     281.953
  H      125.932     237.165     280.299
  H      122.603     238.526     274.548
  H      123.991     239.567     274.749
  H      123.314     238.739     276.130

 3  4  5  6  7  8  9  10  11  12  13  21  23  27  28  29  30  32 0
 6-311+G(2d,p)
 ****
 34  35 0
 6-311+G(2d,p)
 ****
 1  2  14  15  16  17  18  19  20  22  24  25  26 0
 3-21G
 ****
 31  33  36  37  38  39  40  41  42  43  44  45  46 0
 3-21G
 ****


