%nproc=1
%NoSave
%Mem=1900MB
#P OB98/GEN NMR

erre ene a

0 1
  C       86.823     336.442     467.110
  O       85.498     336.634     467.563
  P       84.616     335.384     468.036
  C       85.091     335.403     470.564
  O       85.315     334.733     469.327
  C       84.668     334.407     471.641
  O       83.245     334.165     471.589
  C       85.308     333.037     471.502
  O       86.676     333.045     471.868
  C       84.408     332.199     472.402
  O       84.772     332.358     473.781
  C       83.026     332.839     472.135
  N       82.200     332.028     471.255
  C       81.213     331.253     471.879
  O       81.133     331.217     473.102
  N       80.352     330.532     471.086
  C       80.538     330.490     469.803
  N       79.616     329.811     469.067
  C       81.663     331.166     469.123
  C       82.434     331.927     469.902
  O       84.261     334.410     466.959
  O       83.294     336.052     468.652
  H       82.511     335.618     468.257
  H       85.594     331.850     473.914
  H       81.811     331.044     468.062
  H       83.275     332.480     469.488
  H       82.492     332.992     473.080
  H       84.462     331.134     472.172
  H       85.212     332.685     470.465
  H       84.909     334.842     472.622
  H       78.851     329.378     469.562
  H       84.299     336.148     470.421
  H       79.478     329.982     468.073
  H       86.007     335.928     470.860
  P       87.577     331.816     471.363
  C       88.079     332.712     468.987
  O       87.424     331.731     469.771
  O       86.771     330.531     471.894
  O       88.980     331.818     471.874
  H       87.402     329.840     472.164
  H       88.176     332.331     467.962
  H       89.073     332.939     469.375
  H       87.474     333.623     468.965
  H       87.248     337.386     466.840
  H       86.818     335.796     466.257
  H       87.406     335.999     467.890

 3  4  5  6  7  8  9  10  11  12  13  24  27  28  29  30  32 0
 6-311+G(2d,p)
 ****
 34  35 0
 6-311+G(2d,p)
 ****
 1  2  14  15  16  17  18  19  20  21  22  23  25  26 0
 3-21G
 ****
 31  33  36  37  38  39  40  41  42  43  44  45  46 0
 3-21G
 ****


