%nproc=1
%NoSave
%Mem=1900MB
#P OB98/GEN NMR

erre ene a

0 1
  C      560.206     276.960     705.876
  O      561.237     277.589     706.619
  P      561.869     276.777     707.849
  C      560.199     278.269     709.195
  O      560.915     277.031     709.110
  C      560.543     278.990     710.491
  O      560.403     278.095     711.613
  C      561.971     279.513     710.559
  O      562.136     280.676     709.771
  C      562.125     279.726     712.070
  O      561.470     280.956     712.445
  C      561.337     278.520     712.638
  N      564.462     276.597     716.227
  C      563.763     277.749     716.151
  N      562.966     278.209     715.167
  C      562.936     277.309     714.151
  C      563.599     276.114     714.062
  C      564.392     275.747     715.158
  N      565.111     274.577     715.219
  N      563.344     275.492     712.856
  C      562.504     276.299     712.246
  N      562.210     277.415     712.989
  O      563.190     277.605     708.210
  O      562.165     275.341     707.559
  H      561.844     281.667     711.880
  H      563.895     277.014     708.518
  H      563.849     278.402     717.030
  H      562.083     276.128     711.259
  H      560.761     278.771     713.531
  H      563.158     279.782     712.396
  H      562.680     278.742     710.225
  H      559.826     279.810     710.616
  H      559.117     278.058     709.175
  H      565.769     274.465     715.968
  H      565.180     274.014     714.367
  H      560.454     278.878     708.313
  P      563.624     281.102     709.359
  C      564.137     282.598     711.374
  O      564.375     281.348     710.759
  O      563.403     282.593     708.812
  O      564.301     280.145     708.419
  H      562.876     283.131     709.418
  H      564.657     282.607     712.333
  H      563.063     282.746     711.547
  H      564.528     283.405     710.750
  H      559.882     277.613     705.092
  H      559.382     276.743     706.523
  H      560.576     276.050     705.452

 3  4  5  6  7  8  9  10  11  12  22  25  29  30  31  32 0
 6-311+G(2d,p)
 ****
 33  36  37 0
 6-311+G(2d,p)
 ****
 1  2  13  14  15  16  17  18  19  20  21  23  24  26 0
 3-21G
 ****
 27  28  34  35  38  39  40  41  42  43  44  45  46  47  48 0
 3-21G
 ****


