%nproc=1
%NoSave
%Mem=1900MB
#P OB98/GEN NMR

erre ene a

0 1
  C      -79.315    -704.359     160.689
  O      -77.952    -704.414     161.134
  P      -77.632    -705.205     162.493
  C      -78.364    -707.615     163.147
  O      -77.728    -706.778     162.189
  C      -77.934    -709.071     162.944
  O      -78.256    -709.539     161.608
  C      -76.445    -709.305     163.113
  O      -76.089    -709.458     164.486
  C      -76.263    -710.630     162.387
  O      -76.667    -711.714     163.242
  C      -77.230    -710.490     161.202
  N      -75.897    -711.702     156.475
  C      -76.565    -712.443     157.432
  N      -76.945    -713.695     157.068
  N      -76.841    -712.002     158.630
  C      -76.417    -710.738     158.838
  C      -75.747    -709.897     157.980
  C      -75.435    -710.410     156.657
  O      -74.834    -709.799     155.768
  N      -75.484    -708.685     158.552
  C      -76.010    -708.771     159.762
  N      -76.579    -710.003     159.988
  O      -78.942    -704.930     163.378
  O      -76.389    -704.749     163.192
  H      -76.568    -712.537     162.720
  H      -78.717    -704.965     164.323
  H      -75.709    -712.099     155.559
  H      -76.008    -707.974     160.498
  H      -77.727    -711.429     160.947
  H      -75.219    -710.816     162.110
  H      -76.811    -714.078     156.149
  H      -75.853    -708.513     162.620
  H      -77.460    -714.240     157.750
  H      -78.486    -709.689     163.664
  H      -79.448    -707.528     163.064
  H      -78.107    -707.260     164.147
  P      -75.424    -708.197     165.231
  C      -76.372    -706.054     166.358
  O      -76.645    -707.331     165.809
  O      -74.866    -707.316     164.011
  O      -74.352    -708.546     166.200
  H      -74.061    -706.829     164.289
  H      -77.332    -705.546     166.554
  H      -75.779    -705.450     165.670
  H      -75.836    -706.165     167.315
  H      -79.370    -703.802     159.777
  H      -79.915    -703.881     161.435
  H      -79.676    -705.352     160.523

 3  4  5  6  7  8  9  10  11  12  23  26  30  31 0
 6-311+G(2d,p)
 ****
 33  35  36  37  38 0
 6-311+G(2d,p)
 ****
 1  2  13  14  15  16  17  18  19  20  21  22  24  25 0
 3-21G
 ****
 27  28  29  32  34  39  40  41  42  43  44  45  46  47  48  49 0
 3-21G
 ****


