%nproc=1
%NoSave
%Mem=1900MB
#P OB98/GEN NMR

erre ene a

0 1
  C     -405.542     193.996     367.703
  O     -404.315     193.311     367.883
  P     -402.955     193.887     367.263
  C     -402.993     192.251     365.281
  O     -403.023     193.616     365.683
  C     -401.887     192.016     364.250
  O     -401.819     190.603     363.949
  C     -402.120     192.756     362.935
  O     -400.860     193.189     362.419
  C     -402.676     191.691     362.002
  O     -402.399     192.004     360.630
  C     -401.977     190.432     362.531
  N     -402.714     186.418     359.409
  C     -401.822     187.436     359.367
  N     -401.700     188.481     360.215
  C     -402.589     188.381     361.218
  C     -403.558     187.404     361.391
  C     -403.607     186.384     360.425
  N     -404.509     185.341     360.470
  N     -404.312     187.654     362.526
  C     -403.793     188.750     363.032
  N     -402.745     189.224     362.286
  O     -401.708     193.411     367.921
  O     -403.114     195.475     367.363
  H     -401.423     192.071     360.539
  H     -402.257     195.887     367.592
  H     -401.117     187.411     358.544
  H     -404.141     189.248     363.927
  H     -400.983     190.306     362.085
  H     -403.765     191.628     362.125
  H     -402.799     193.609     363.037
  H     -400.927     192.308     364.693
  H     -403.957     192.000     364.831
  H     -404.386     184.594     359.806
  H     -405.050     185.216     361.319
  H     -402.842     191.614     366.159
  P     -400.919     194.163     361.137
  C     -399.687     192.356     359.721
  O     -400.821     193.180     359.875
  O     -399.914     195.264     361.225
  O     -402.448     194.640     361.184
  H     -403.013     193.986     361.653
  H     -399.789     191.791     358.789
  H     -399.623     191.648     360.551
  H     -398.780     192.956     359.675
  H     -406.327     193.455     368.189
  H     -405.757     194.074     366.658
  H     -405.469     194.976     368.127

 3  4  5  6  7  8  9  10  11  12  22  25  29  30  31  32 0
 6-311+G(2d,p)
 ****
 33  36  37 0
 6-311+G(2d,p)
 ****
 1  2  13  14  15  16  17  18  19  20  21  23  24  26 0
 3-21G
 ****
 27  28  34  35  38  39  40  41  42  43  44  45  46  47  48 0
 3-21G
 ****


