%nproc=1
%NoSave
%Mem=1900MB
#P OB98/GEN NMR

erre ene a

0 1
  C       52.875    -209.371     283.484
  O       53.334    -209.946     282.282
  H       53.619    -208.648     283.829
  H       52.757    -210.137     284.254
  H       51.927    -208.850     283.325
  P       52.454    -211.084     281.567
  C       52.615    -212.124     279.226
  O       53.343    -211.588     280.323
  C       53.551    -212.514     278.081
  O       54.200    -211.323     277.557
  C       54.657    -213.498     278.496
  O       54.745    -214.557     277.539
  C       55.923    -212.657     278.440
  O       57.101    -213.433     278.246
  C       55.572    -211.681     277.313
  N       56.456    -210.523     277.294
  C       57.274    -210.387     276.168
  O       57.217    -211.217     275.257
  N       58.169    -209.353     276.122
  C       58.279    -208.549     277.134
  N       59.208    -207.563     277.039
  C       57.455    -208.672     278.355
  C       56.570    -209.669     278.367
  O       51.064    -210.670     281.222
  O       52.507    -212.333     282.566
  H       57.826    -212.833     277.966
  H       51.735    -212.918     282.389
  H       57.587    -207.980     279.176
  H       55.923    -209.839     279.221
  H       55.624    -212.177     276.334
  H       56.034    -212.108     279.385
  H       54.502    -213.924     279.484
  H       52.946    -212.919     277.259
  H       59.754    -207.518     276.184
  H       51.889    -211.373     278.889
  H       59.397    -206.895     277.768
  H       52.079    -213.015     279.568
  P       53.855    -215.860     277.843
  C       52.938    -217.802     276.386
  O       53.962    -216.837     276.574
  O       52.355    -215.305     277.779
  O       54.153    -216.490     279.161
  H       51.967    -215.303     278.673
  H       53.145    -218.375     275.506
  H       51.996    -217.306     276.275
  H       52.901    -218.453     277.235

 6  7  8  9  10  11  12  13  14  15  16  26  30  31  32  33  35 0
 6-311+G(2d,p)
 ****
 37  38 0
 6-311+G(2d,p)
 ****
 1  2  3  4  5  17  18  19  20  21  22  23  24  25 0
 3-21G
 ****
 27  28  29  34  36  39  40  41  42  43  44  45  46 0
 3-21G
 ****


