%nproc=1
%NoSave
%Mem=1900MB
#P OB98/GEN NMR

erre ene a

0 1
  C      107.095      22.027     279.772
  O      107.062      20.718     279.241
  H      107.757      22.036     280.641
  H      106.094      22.325     280.091
  H      107.475      22.733     279.029
  P      106.211      20.502     277.897
  C      104.213      19.805     279.396
  O      105.021      19.489     278.271
  C      103.094      18.780     279.563
  O      102.182      18.889     278.429
  C      103.575      17.322     279.625
  O      102.718      16.611     280.525
  C      103.307      16.816     278.217
  O      103.207      15.395     278.154
  C      102.006      17.558     277.908
  N      100.265      14.766     274.103
  C      100.390      14.472     275.447
  N       99.991      13.245     275.842
  N      100.866      15.310     276.329
  C      101.196      16.514     275.800
  C      101.126      16.927     274.493
  C      100.621      15.979     273.521
  O      100.505      16.175     272.314
  N      101.584      18.213     274.355
  C      101.927      18.576     275.578
  N      101.712      17.578     276.489
  O      107.195      19.614     276.999
  O      105.791      21.752     277.198
  H      102.774      15.162     277.304
  H      107.726      20.186     276.414
  H       99.904      14.079     273.463
  H      102.338      19.538     275.854
  H      101.140      17.107     278.406
  H      104.110      17.134     277.540
  H       99.571      12.565     275.228
  H      104.619      17.203     279.934
  H      100.035      13.024     276.829
  H      102.515      19.038     280.458
  H      103.774      20.797     279.252
  H      104.841      19.823     280.295
  P      102.961      16.792     282.099
  C      104.375      14.621     281.878
  O      103.507      15.403     282.682
  O      101.472      16.860     282.683
  O      103.752      18.005     282.461
  H      101.462      17.383     283.505
  H      104.647      13.732     282.407
  H      105.256      15.185     281.651
  H      103.877      14.356     280.969

 6  7  8  9  10  11  12  13  14  15  26  29  33  34 0
 6-311+G(2d,p)
 ****
 36  38  39  40  41 0
 6-311+G(2d,p)
 ****
 1  2  3  4  5  16  17  18  19  20  21  22  23  24  25 0
 3-21G
 ****
 27  28  30  31  32  35  37  42  43  44  45  46  47 0
 3-21G
 ****
 48  49 0
 3-21G
 ****


