%nproc=1
%NoSave
%Mem=1900MB
#P OB98/GEN NMR

erre ene a

0 1
  C      136.787     -50.148      79.873
  O      137.323     -49.141      79.040
  P      137.100     -49.159      77.452
  C      139.320     -47.874      77.283
  O      137.962     -47.932      76.878
  C      140.000     -46.600      76.775
  O      141.361     -46.540      77.283
  C      140.071     -46.482      75.247
  O      139.954     -45.088      74.946
  C      141.473     -46.976      74.946
  O      141.938     -46.562      73.667
  C      142.242     -46.409      76.146
  N      143.514     -47.092      76.353
  C      144.627     -46.556      75.702
  O      144.497     -45.602      74.931
  N      145.852     -47.145      75.890
  C      145.936     -48.237      76.585
  N      147.176     -48.772      76.743
  C      144.766     -48.905      77.184
  C      143.600     -48.277      77.044
  O      135.676     -49.188      77.011
  O      137.943     -50.429      76.968
  H      142.866     -46.866      73.563
  H      137.451     -51.266      77.164
  H      144.878     -49.843      77.707
  H      142.688     -48.690      77.450
  H      142.442     -45.338      76.007
  H      141.490     -48.072      74.967
  H      139.302     -47.056      74.726
  H      139.460     -45.741      77.191
  H      147.954     -48.273      76.327
  H      139.838     -48.741      76.861
  H      147.363     -49.571      77.331
  H      139.389     -47.943      78.373
  P      138.671     -44.504      74.184
  C      138.824     -46.023      72.131
  O      138.928     -44.699      72.617
  O      138.269     -43.123      74.589
  O      137.509     -45.563      74.497
  H      136.643     -45.165      74.290
  H      138.738     -45.997      71.042
  H      137.944     -46.525      72.545
  H      139.722     -46.585      72.404
  H      137.051     -49.947      80.890
  H      137.182     -51.099      79.583
  H      135.721     -50.160      79.777

 3  4  5  6  7  8  9  10  11  12  13  23  27  28  29  30  32 0
 6-311+G(2d,p)
 ****
 34  35 0
 6-311+G(2d,p)
 ****
 1  2  14  15  16  17  18  19  20  21  22  24  25  26 0
 3-21G
 ****
 31  33  36  37  38  39  40  41  42  43  44  45  46 0
 3-21G
 ****


