%nproc=1
%NoSave
%Mem=1900MB
#P OB98/GEN NMR

erre ene a

0 1
  C       -8.760      -7.010      18.586
  O       -9.955      -7.678      18.238
  H       -7.915      -7.565      18.171
  H       -8.653      -6.966      19.672
  H       -8.758      -6.000      18.169
  P      -11.322      -7.057      18.801
  C      -12.616      -4.833      18.441
  O      -11.409      -5.556      18.241
  C      -12.344      -3.339      18.308
  O      -11.355      -2.930      19.279
  C      -11.779      -2.928      16.956
  O      -12.778      -2.853      15.955
  C      -11.180      -1.573      17.294
  O      -12.171      -0.534      17.248
  C      -10.668      -1.786      18.735
  N       -9.218      -1.943      18.784
  C       -8.497      -0.796      19.100
  O       -9.026       0.292      19.326
  N       -7.136      -0.929      19.112
  C       -6.441      -2.062      18.807
  O       -5.218      -2.096      18.764
  C       -7.256      -3.248      18.495
  C       -8.586      -3.134      18.488
  O      -11.017      -6.865      20.361
  O      -12.539      -7.886      18.563
  H      -11.448      -7.574      20.873
  H      -12.468      -0.482      16.319
  H       -6.596      -0.106      19.327
  H       -6.736      -4.167      18.254
  H       -9.207      -3.990      18.241
  H      -10.936      -0.929      19.365
  H      -10.397      -1.294      16.590
  H      -10.971      -3.608      16.660
  H      -13.276      -2.797      18.518
  H      -13.003      -5.038      19.444
  H      -13.355      -5.164      17.704
  P      -12.340      -3.012      14.421
  C      -11.252      -5.034      13.145
  O      -11.395      -4.306      14.350
  O      -11.332      -1.783      14.258
  O      -13.485      -3.020      13.468
  H      -10.809      -1.611      15.060
  H      -10.585      -5.856      13.302
  H      -10.856      -4.393      12.386
  H      -12.207      -5.404      12.836

 6  7  8  9  10  11  12  13  14  15  16  27  31  32  33  34  35 0
 6-311+G(2d,p)
 ****
 36  37 0
 6-311+G(2d,p)
 ****
 1  2  3  4  5  17  18  19  20  21  22  23  24  25 0
 3-21G
 ****
 26  28  29  30  38  39  40  41  42  43  44  45 0
 3-21G
 ****


