%nproc=1
%NoSave
%Mem=1900MB
#P OB98/GEN NMR

erre ene a

0 1
  C      236.037      23.369     306.230
  O      237.102      23.976     305.527
  H      236.032      23.750     307.255
  H      236.168      22.284     306.257
  H      235.083      23.616     305.755
  P      237.351      23.461     304.024
  C      239.735      22.812     304.866
  O      238.558      22.408     304.183
  C      240.314      21.635     305.649
  O      239.379      21.181     306.653
  C      240.624      20.402     304.801
  O      241.825      20.519     304.053
  C      240.742      19.357     305.898
  O      241.994      19.520     306.589
  C      239.549      19.742     306.797
  N      238.311      19.041     306.446
  C      237.897      18.027     307.318
  O      238.551      17.753     308.322
  N      236.759      17.317     307.009
  C      236.082      17.605     305.940
  N      234.966      16.864     305.689
  C      236.475      18.671     305.004
  C      237.583      19.341     305.312
  O      238.067      24.708     303.320
  O      236.154      22.944     303.301
  H      242.697      19.432     305.918
  H      238.398      24.445     302.424
  H      235.885      18.868     304.117
  H      237.934      20.141     304.672
  H      239.775      19.545     307.855
  H      240.718      18.333     305.522
  H      239.784      20.140     304.150
  H      241.211      21.991     306.173
  H      234.757      16.104     306.320
  H      239.474      23.626     305.551
  H      234.462      16.914     304.814
  H      240.480      23.173     304.149
  P      241.685      20.684     302.462
  C      242.942      18.441     302.022
  O      241.756      19.210     301.836
  O      243.086      21.332     302.041
  O      240.523      21.514     302.011
  H      242.974      21.943     301.288
  H      242.828      17.489     301.547
  H      243.114      18.299     303.068
  H      243.774      18.958     301.591

 6  7  8  9  10  11  12  13  14  15  16  26  30  31  32  33  35 0
 6-311+G(2d,p)
 ****
 37  38 0
 6-311+G(2d,p)
 ****
 1  2  3  4  5  17  18  19  20  21  22  23  24  25 0
 3-21G
 ****
 27  28  29  34  36  39  40  41  42  43  44  45  46 0
 3-21G
 ****


