%nproc=1
%NoSave
%Mem=1900MB
#P OB98/GEN NMR

erre ene a

0 1
  C     -312.324      29.483    -417.687
  O     -311.142      29.155    -416.981
  H     -312.762      30.380    -417.240
  H     -313.040      28.661    -417.602
  H     -312.107      29.682    -418.741
  P     -310.168      28.078    -417.667
  C     -310.380      25.579    -418.337
  O     -311.048      26.752    -417.900
  C     -310.920      24.355    -417.601
  O     -310.436      24.327    -416.242
  C     -312.444      24.300    -417.510
  O     -313.017      23.754    -418.695
  C     -312.625      23.359    -416.335
  O     -312.396      21.998    -416.758
  C     -311.499      23.811    -415.390
  N     -314.037      24.790    -411.105
  C     -313.924      23.613    -411.818
  N     -314.586      22.542    -411.322
  N     -313.223      23.488    -412.918
  C     -312.635      24.645    -413.306
  C     -312.678      25.876    -412.692
  C     -313.437      25.993    -411.466
  O     -313.560      27.010    -410.791
  N     -311.954      26.814    -413.385
  C     -311.492      26.156    -414.432
  N     -311.880      24.836    -414.436
  O     -309.187      27.677    -416.466
  O     -309.406      28.568    -418.848
  H     -311.603      22.005    -417.327
  H     -308.332      28.134    -416.587
  H     -314.591      24.833    -410.268
  H     -310.871      26.582    -415.207
  H     -311.083      22.976    -414.812
  H     -313.630      23.395    -415.914
  H     -315.161      22.577    -410.490
  H     -312.875      25.281    -417.272
  H     -314.517      21.670    -411.828
  H     -310.532      23.459    -418.103
  H     -309.308      25.680    -418.133
  H     -310.528      25.458    -419.419
  P     -314.094      24.635    -419.493
  C     -316.636      25.083    -419.266
  O     -315.467      24.569    -418.658
  O     -314.397      23.735    -420.782
  O     -313.639      26.002    -419.876
  H     -314.041      24.174    -421.581
  H     -317.464      24.972    -418.598
  H     -316.833      24.546    -420.170
  H     -316.495      26.120    -419.490

 6  7  8  9  10  11  12  13  14  15  26  29  33  34 0
 6-311+G(2d,p)
 ****
 36  38  39  40  41 0
 6-311+G(2d,p)
 ****
 1  2  3  4  5  16  17  18  19  20  21  22  23  24  25 0
 3-21G
 ****
 27  28  30  31  32  35  37  42  43  44  45  46  47 0
 3-21G
 ****
 48  49 0
 3-21G
 ****


