%nproc=1
%NoSave
%Mem=1900MB
#P OB98/GEN NMR

erre ene a

0 1
  C     -847.033     540.345    1335.594
  O     -848.020     539.387    1335.949
  H     -846.568     540.741    1336.506
  H     -847.483     541.189    1335.058
  H     -846.262     539.882    1334.975
  P     -848.958     538.796    1334.786
  C     -849.705     536.395    1334.200
  O     -848.732     537.214    1334.843
  C     -849.288     534.922    1334.228
  O     -848.017     534.769    1333.542
  C     -849.062     534.405    1335.656
  O     -850.302     534.143    1336.290
  C     -848.199     533.168    1335.365
  O     -848.999     532.061    1334.937
  C     -847.300     533.692    1334.203
  N     -845.988     534.155    1334.679
  C     -845.177     533.168    1335.234
  O     -845.547     531.997    1335.300
  N     -843.940     533.556    1335.713
  C     -843.561     534.786    1335.634
  N     -842.319     535.084    1336.119
  C     -844.392     535.863    1335.048
  C     -845.595     535.480    1334.599
  O     -848.796     539.390    1333.431
  O     -850.449     538.970    1335.364
  H     -848.366     531.396    1334.618
  H     -850.804     539.845    1335.102
  H     -844.038     536.886    1335.001
  H     -846.258     536.193    1334.145
  H     -847.135     532.904    1333.459
  H     -847.633     532.876    1336.258
  H     -848.461     535.108    1336.231
  H     -850.044     534.327    1333.703
  H     -841.785     534.349    1336.533
  H     -849.802     536.742    1333.168
  H     -841.900     535.997    1336.050
  H     -850.694     536.501    1334.678
  P     -850.330     533.298    1337.666
  C     -852.074     532.929    1339.528
  O     -851.809     533.510    1338.260
  O     -849.219     533.574    1338.612
  O     -850.365     531.780    1337.137
  H     -849.492     531.491    1336.802
  H     -853.084     533.138    1339.812
  H     -851.406     533.341    1340.256
  H     -851.932     531.870    1339.472

 6  7  8  9  10  11  12  13  14  15  16  26  30  31  32  33  35 0
 6-311+G(2d,p)
 ****
 37  38 0
 6-311+G(2d,p)
 ****
 1  2  3  4  5  17  18  19  20  21  22  23  24  25 0
 3-21G
 ****
 27  28  29  34  36  39  40  41  42  43  44  45  46 0
 3-21G
 ****


