%nproc=1
%NoSave
%Mem=1900MB
#P OB98/GEN NMR

erre ene a

0 1
  C     -295.308    -270.974      47.361
  O     -294.234    -270.132      46.991
  H     -295.563    -271.612      46.511
  H     -296.185    -270.376      47.628
  H     -295.018    -271.606      48.204
  P     -293.739    -269.067      48.084
  C     -294.834    -267.061      49.318
  O     -294.923    -267.998      48.254
  C     -295.937    -266.015      49.170
  O     -297.219    -266.671      49.031
  C     -296.082    -265.092      50.374
  O     -295.097    -264.074      50.394
  C     -297.486    -264.551      50.153
  O     -297.484    -263.439      49.242
  C     -298.220    -265.765      49.545
  N     -299.100    -266.418      50.511
  C     -300.234    -265.698      50.873
  O     -300.499    -264.582      50.423
  N     -301.045    -266.288      51.805
  C     -300.817    -267.481      52.425
  O     -301.544    -267.920      53.308
  C     -299.607    -268.205      51.991
  C     -298.813    -267.647      51.074
  O     -292.598    -268.256      47.307
  O     -293.240    -269.659      49.362
  H     -291.718    -268.557      47.600
  H     -298.425    -263.231      49.068
  H     -301.863    -265.775      52.091
  H     -299.397    -269.160      52.456
  H     -297.908    -268.150      50.755
  H     -298.829    -265.452      48.687
  H     -297.932    -264.194      51.082
  H     -296.070    -265.675      51.304
  H     -295.747    -265.433      48.259
  H     -293.861    -266.560      49.283
  H     -294.923    -267.592      50.272
  P     -294.725    -263.394      51.797
  C     -296.116    -262.156      53.651
  O     -296.092    -262.783      52.381
  O     -293.903    -262.109      51.311
  O     -293.995    -264.301      52.728
  H     -294.243    -261.732      50.482
  H     -297.108    -261.816      53.862
  H     -295.446    -261.322      53.650
  H     -295.811    -262.856      54.400

 6  7  8  9  10  11  12  13  14  15  16  27  31  32  33  34  35 0
 6-311+G(2d,p)
 ****
 36  37 0
 6-311+G(2d,p)
 ****
 1  2  3  4  5  17  18  19  20  21  22  23  24  25 0
 3-21G
 ****
 26  28  29  30  38  39  40  41  42  43  44  45 0
 3-21G
 ****


