%nproc=1
%NoSave
%Mem=1900MB
#P OB98/GEN NMR

erre ene a

0 1
  C      -30.409    -185.986      94.918
  O      -31.267    -184.922      95.280
  H      -29.404    -185.762      95.289
  H      -30.361    -186.085      93.828
  H      -30.745    -186.924      95.366
  P      -32.809    -185.006      94.845
  C      -33.963    -185.643      92.612
  O      -32.756    -185.252      93.256
  C      -34.450    -184.532      91.685
  O      -33.642    -184.447      90.492
  C      -35.876    -184.708      91.171
  O      -36.869    -184.454      92.146
  C      -35.876    -183.673      90.056
  O      -35.987    -182.354      90.623
  C      -34.482    -183.901      89.437
  N      -34.515    -184.813      88.292
  C      -34.923    -184.264      87.068
  O      -35.238    -183.079      86.985
  N      -34.996    -185.084      85.962
  C      -34.713    -186.346      86.080
  N      -34.810    -187.114      84.959
  C      -34.298    -186.969      87.353
  C      -34.220    -186.153      88.403
  O      -33.681    -183.873      95.293
  O      -33.301    -186.434      95.375
  H      -36.814    -182.333      91.134
  H      -34.256    -186.532      95.138
  H      -34.099    -188.031      87.400
  H      -33.929    -186.539      89.374
  H      -34.031    -182.952      89.120
  H      -36.705    -183.796      89.360
  H      -36.006    -185.702      90.721
  H      -34.328    -183.581      92.226
  H      -35.097    -186.660      84.102
  H      -34.704    -185.869      93.382
  H      -34.679    -188.118      84.970
  H      -33.785    -186.542      92.012
  P      -38.388    -184.817      91.746
  C      -40.101    -183.802      90.058
  O      -38.881    -183.650      90.759
  O      -39.192    -184.544      93.101
  O      -38.592    -186.202      91.217
  H      -39.348    -185.382      93.582
  H      -40.274    -182.938      89.451
  H      -40.903    -183.913      90.758
  H      -40.049    -184.670      89.435

 6  7  8  9  10  11  12  13  14  15  16  26  30  31  32  33  35 0
 6-311+G(2d,p)
 ****
 37  38 0
 6-311+G(2d,p)
 ****
 1  2  3  4  5  17  18  19  20  21  22  23  24  25 0
 3-21G
 ****
 27  28  29  34  36  39  40  41  42  43  44  45  46 0
 3-21G
 ****


