%nproc=1
%NoSave
%Mem=1900MB
#P OB98/GEN NMR

erre ene a

0 1
  C     -138.227    -219.694      38.670
  O     -138.502    -220.961      39.235
  H     -137.255    -219.739      38.168
  H     -138.189    -218.929      39.448
  H     -138.994    -219.439      37.933
  P     -139.843    -221.075      40.115
  C     -138.571    -220.481      42.317
  O     -139.301    -221.458      41.578
  C     -137.634    -221.167      43.304
  O     -138.379    -222.022      44.204
  C     -136.586    -222.078      42.662
  O     -135.498    -221.366      42.091
  C     -136.165    -222.886      43.873
  O     -135.324    -222.080      44.725
  C     -137.536    -223.161      44.535
  N     -138.146    -224.413      44.085
  C     -137.473    -225.597      44.396
  O     -136.409    -225.565      45.017
  N     -137.993    -226.788      43.964
  C     -139.110    -226.810      43.303
  N     -139.575    -228.023      42.902
  C     -139.869    -225.592      42.961
  C     -139.333    -224.442      43.385
  O     -140.496    -222.448      39.618
  O     -140.758    -219.898      40.071
  H     -134.509    -221.911      44.217
  H     -141.257    -222.691      40.198
  H     -140.785    -225.658      42.398
  H     -139.835    -223.503      43.172
  H     -137.445    -223.193      45.628
  H     -135.597    -223.778      43.617
  H     -137.037    -222.749      41.922
  H     -137.163    -220.385      43.919
  H     -139.009    -228.841      43.102
  H     -139.293    -219.853      42.857
  H     -140.350    -228.133      42.258
  H     -137.987    -219.854      41.640
  P     -135.361    -221.390      40.494
  C     -134.171    -223.650      39.985
  O     -134.043    -222.242      40.159
  O     -134.922    -219.888      40.141
  O     -136.595    -221.800      39.758
  H     -135.303    -219.609      39.289
  H     -133.212    -224.071      39.769
  H     -134.839    -223.850      39.174
  H     -134.558    -224.086      40.882

 6  7  8  9  10  11  12  13  14  15  16  26  30  31  32  33  35 0
 6-311+G(2d,p)
 ****
 37  38 0
 6-311+G(2d,p)
 ****
 1  2  3  4  5  17  18  19  20  21  22  23  24  25 0
 3-21G
 ****
 27  28  29  34  36  39  40  41  42  43  44  45  46 0
 3-21G
 ****


