%nproc=1
%NoSave
%Mem=1900MB
#P OB98/GEN NMR

erre ene a

0 1
  C      276.603    -793.685      95.678
  O      276.511    -793.284      97.054
  P      275.855    -791.845      97.334
  C      275.158    -792.688      99.692
  O      275.763    -791.654      98.922
  C      274.998    -792.284     101.163
  O      276.303    -792.310     101.807
  C      274.415    -790.884     101.401
  O      273.557    -790.932     102.536
  C      275.634    -790.044     101.765
  O      275.277    -788.882     102.505
  C      276.437    -791.087     102.540
  N      279.809    -788.161     104.957
  C      278.457    -788.336     105.188
  N      277.920    -787.599     106.200
  N      277.694    -789.140     104.506
  C      278.371    -789.832     103.535
  C      279.706    -789.751     103.213
  C      280.527    -788.826     103.962
  O      281.713    -788.587     103.772
  N      280.027    -790.604     102.192
  C      278.874    -791.193     101.881
  N      277.846    -790.736     102.667
  O      274.333    -792.044      96.875
  O      276.509    -790.720      96.582
  H      274.690    -789.191     103.224
  H      274.096    -791.379      96.195
  H      280.346    -787.512     105.513
  H      278.738    -791.913     101.082
  H      276.033    -791.220     103.547
  H      276.132    -789.744     100.845
  H      278.463    -787.008     106.809
  H      273.857    -790.481     100.539
  H      276.937    -787.747     106.416
  H      274.372    -793.047     101.654
  H      275.784    -793.582      99.632
  H      274.182    -792.924      99.254
  P      271.972    -790.801     102.257
  C      271.241    -792.898     103.648
  O      271.262    -791.472     103.538
  O      271.723    -791.870     101.095
  O      271.525    -789.444     101.898
  H      270.955    -791.619     100.554
  H      271.910    -793.385     102.937
  H      270.210    -793.250     103.475
  H      271.543    -793.163     104.664
  H      277.054    -794.654      95.618
  H      277.201    -792.980      95.140
  H      275.623    -793.721      95.251

 3  4  5  6  7  8  9  10  11  12  23  26  30  31  33  0
 6-311+G(2d,p)
 ****
 35  36  37  38 0
 6-311+G(2d,p)
 ****
 1  2  13  14  15  16  17  18  19  20  21  22  24  25  27  28  29 0
 3-21G
 ****
 32  34  39  40  41  42  43  44  45  46  47  48  49 0
 3-21G
 ****


