%nproc=1
%NoSave
%Mem=1900MB
#P OB98/GEN NMR

erre ene a

0 1
  C     -138.764      34.793     597.498
  O     -138.561      34.542     598.908
  P     -139.688      35.091     599.914
  C     -137.650      35.570     601.492
  O     -138.987      35.118     601.356
  C     -136.979      34.866     602.681
  O     -137.628      35.248     603.921
  C     -137.033      33.362     602.620
  O     -136.124      32.828     601.671
  C     -136.721      33.003     604.069
  O     -135.297      33.066     604.300
  C     -137.428      34.149     604.845
  N     -138.681      33.725     605.452
  C     -138.764      33.880     606.832
  O     -137.846      34.329     607.516
  N     -139.960      33.507     607.397
  C     -141.029      32.970     606.762
  O     -142.068      32.653     607.307
  C     -140.857      32.774     605.302
  C     -139.715      33.163     604.725
  O     -140.681      33.839     599.961
  O     -140.306      36.364     599.464
  H     -140.221      32.978     599.916
  H     -135.134      32.640     605.172
  H     -140.043      33.632     608.401
  H     -141.676      32.329     604.760
  H     -139.573      33.023     603.646
  H     -136.770      34.535     605.631
  H     -137.056      32.002     604.341
  H     -138.057      33.035     602.377
  H     -135.932      35.214     602.715
  H     -137.629      36.649     601.644
  H     -137.120      35.374     600.555
  P     -136.481      31.390     601.045
  C     -134.536      29.642     600.789
  O     -135.142      30.859     600.353
  O     -137.405      31.805     599.800
  O     -137.128      30.444     602.007
  H     -137.051      32.576     599.304
  H     -133.878      29.275     600.000
  H     -135.288      28.895     601.008
  H     -133.940      29.845     601.680
  H     -137.949      34.380     596.941
  H     -138.814      35.848     597.327
  H     -139.679      34.337     597.183

 3  4  5  6  7  8  9  10  11  12  13  24  28  29  30  31  32 0
 6-311+G(2d,p)
 ****
 33  34 0
 6-311+G(2d,p)
 ****
 1  2  14  15  16  17  18  19  20  21  22  23  25  26  27 0
 3-21G
 ****
 35  36  37  38  39  40  41  42  43  44  45 0
 3-21G
 ****


