%nproc=1
%NoSave
%Mem=1900MB
#P OB98/GEN NMR

erre ene a

0 1
  C        9.431      78.664     -63.187
  O        8.880      79.671     -64.011
  H       10.504      78.592     -63.386
  H        8.969      77.700     -63.417
  H        9.287      78.900     -62.128
  P        7.381      80.170     -63.733
  C        5.979      78.585     -65.208
  O        6.432      78.884     -63.896
  C        4.850      77.548     -65.169
  O        5.371      76.317     -64.577
  C        3.630      77.981     -64.324
  O        2.469      77.392     -64.925
  C        3.949      77.323     -62.993
  O        2.836      77.299     -62.141
  C        4.488      75.977     -63.488
  N        5.183      75.213     -62.456
  C        4.500      74.140     -61.886
  O        3.369      73.795     -62.216
  N        5.171      73.470     -60.895
  C        6.419      73.762     -60.427
  O        6.982      73.112     -59.553
  C        7.079      74.924     -61.050
  C        6.441      75.587     -62.021
  O        6.947      81.377     -64.494
  O        7.359      80.430     -62.150
  H        7.491      81.382     -61.974
  H        2.594      78.209     -61.867
  H        4.691      72.689     -60.470
  H        8.061      75.197     -60.690
  H        6.893      76.448     -62.503
  H        3.682      75.366     -63.906
  H        4.733      77.885     -62.473
  H        3.510      79.067     -64.275
  H        4.554      77.307     -66.197
  H        6.825      78.190     -65.782
  H        5.623      79.506     -65.687
  P        1.643      78.089     -66.117
  C        0.246      79.304     -64.321
  O        0.926      79.414     -65.563
  O        0.706      77.158     -66.819
  O        2.750      78.645     -67.135
  H        2.420      78.557     -68.050
  H       -0.185      80.249     -64.066
  H        0.939      79.011     -63.560
  H       -0.528      78.569     -64.402

 6  7  8  9  10  11  12  13  14  15  16  27  31  32  33  34  35 0
 6-311+G(2d,p)
 ****
 36  37 0
 6-311+G(2d,p)
 ****
 1  2  3  4  5  17  18  19  20  21  22  23  24  25 0
 3-21G
 ****
 26  28  29  30  38  39  40  41  42  43  44  45 0
 3-21G
 ****


