%nproc=1
%NoSave
%Mem=1900MB
#P OB98/GEN NMR

erre ene a

0 1
  C      123.607    -410.905    -198.618
  O      122.558    -411.668    -199.225
  P      121.185    -411.760    -198.395
  C      121.047    -414.230    -197.583
  O      121.370    -412.882    -197.257
  C      120.947    -415.081    -196.318
  O      122.220    -415.262    -195.671
  C      120.027    -414.486    -195.258
  O      118.676    -414.755    -195.591
  C      120.486    -415.205    -194.000
  O      119.861    -416.503    -193.877
  C      122.000    -415.370    -194.242
  N      126.513    -414.595    -192.055
  C      125.947    -415.762    -192.528
  N      126.701    -416.875    -192.439
  N      124.751    -415.825    -193.054
  C      124.108    -414.639    -193.089
  C      124.576    -413.408    -192.670
  C      125.898    -413.347    -192.086
  O      126.449    -412.341    -191.673
  N      123.656    -412.414    -192.922
  C      122.599    -413.062    -193.375
  N      122.841    -414.406    -193.552
  O      120.173    -412.431    -199.432
  O      120.691    -410.441    -197.910
  H      120.062    -417.030    -194.673
  H      119.509    -411.776    -199.721
  H      127.427    -414.604    -191.647
  H      121.648    -412.607    -193.603
  H      122.352    -416.362    -193.927
  H      120.233    -414.655    -193.098
  H      127.636    -416.901    -192.043
  H      120.205    -413.411    -195.164
  H      126.310    -417.746    -192.789
  H      120.574    -416.075    -196.619
  H      121.814    -414.643    -198.247
  H      120.109    -414.241    -198.143
  P      117.920    -413.734    -196.575
  C      117.020    -412.059    -194.807
  O      117.924    -412.295    -195.864
  O      116.397    -414.204    -196.498
  O      118.423    -413.749    -197.981
  H      116.011    -414.223    -197.395
  H      117.460    -411.324    -194.127
  H      116.800    -412.971    -194.255
  H      116.083    -411.655    -195.216
  H      124.467    -410.912    -199.254
  H      123.860    -411.336    -197.672
  H      123.278    -409.897    -198.475

 3  4  5  6  7  8  9  10  11  12  23  26  30  31 0
 6-311+G(2d,p)
 ****
 33  35  36  37  38 0
 6-311+G(2d,p)
 ****
 1  2  13  14  15  16  17  18  19  20  21  22  24  25 0
 3-21G
 ****
 27  28  29  32  34  39  40  41  42  43  44  45  46  47  48  49 0
 3-21G
 ****


