%nproc=1
%NoSave
%Mem=1900MB
#P OB98/GEN NMR

erre ene a

0 1
  C      133.195    -402.344     -98.650
  O      132.323    -403.230     -99.320
  H      134.213    -402.450     -99.034
  H      132.859    -401.318     -98.821
  H      133.184    -402.547     -97.573
  P      132.637    -404.800     -99.188
  C      134.630    -406.306     -99.913
  O      133.968    -405.053    -100.050
  C      135.377    -406.631    -101.201
  O      134.442    -406.835    -102.288
  C      136.327    -405.531    -101.672
  O      137.565    -405.563    -100.990
  C      136.490    -405.921    -103.135
  O      137.399    -407.030    -103.242
  C      135.071    -406.353    -103.505
  N      133.611    -404.028    -107.827
  C      134.453    -405.063    -107.598
  N      134.790    -405.621    -106.418
  C      134.164    -404.998    -105.400
  C      133.293    -403.926    -105.479
  C      133.012    -403.437    -106.768
  N      132.168    -402.373    -107.006
  N      132.878    -403.534    -104.219
  C      133.468    -404.386    -103.401
  N      134.265    -405.280    -104.063
  O      131.492    -405.489    -100.074
  O      132.681    -405.335     -97.798
  H      137.358    -407.337    -104.169
  H      131.383    -406.422     -99.813
  H      134.909    -405.499    -108.480
  H      133.350    -404.390    -102.326
  H      135.055    -407.181    -104.228
  H      136.900    -405.111    -103.743
  H      135.858    -404.542    -101.619
  H      135.920    -407.577    -101.050
  H      133.887    -407.082     -99.717
  H      132.181    -401.983    -107.938
  H      131.838    -401.833    -106.218
  H      135.327    -406.253     -99.068
  P      138.152    -404.159    -100.465
  C      138.664    -401.933    -101.709
  O      138.593    -403.354    -101.780
  O      139.541    -404.581     -99.800
  O      137.265    -403.427     -99.519
  H      139.804    -403.944     -99.102
  H      138.970    -401.543    -102.657
  H      139.374    -401.648    -100.961
  H      137.702    -401.540    -101.455

 6  7  8  9  10  11  12  13  14  15  25  28  32  33  34  35 0
 6-311+G(2d,p)
 ****
 36  39  40 0
 6-311+G(2d,p)
 ****
 1  2  3  4  5  16  17  18  19  20  21  22  23  24 0
 3-21G
 ****
 26  27  29  30  31  37  38  41  42  43  44  45  46  47 0
 3-21G
 ****
 48 0
 3-21G
 ****


