%nproc=1
%NoSave
%Mem=1900MB
#P OB98/GEN NMR

erre ene a

0 1
  C      290.070    -282.298     -67.195
  O      289.656    -283.660     -67.110
  P      290.764    -284.804     -66.917
  C      290.944    -285.408     -69.411
  O      291.627    -284.918     -68.267
  C      291.900    -285.825     -70.534
  O      291.211    -286.622     -71.535
  C      292.567    -284.649     -71.265
  O      293.896    -285.064     -71.607
  C      291.710    -284.520     -72.510
  O      292.355    -283.786     -73.544
  C      291.434    -285.996     -72.815
  N      290.307    -286.185     -73.711
  C      290.540    -286.011     -75.079
  O      291.637    -285.613     -75.469
  N      289.517    -286.268     -75.955
  C      288.331    -286.518     -75.496
  N      287.345    -286.785     -76.398
  C      288.006    -286.532     -74.056
  C      289.038    -286.385     -73.236
  O      290.260    -286.103     -66.385
  O      291.798    -284.126     -65.894
  H      293.273    -284.117     -73.641
  H      292.161    -284.821     -65.308
  H      286.989    -286.663     -73.725
  H      288.905    -286.386     -72.161
  H      292.320    -286.475     -73.259
  H      290.774    -283.998     -72.264
  H      292.616    -283.735     -70.669
  H      292.679    -286.460     -70.090
  H      287.575    -286.747     -77.383
  H      290.269    -284.630     -69.784
  H      286.403    -287.040     -76.118
  H      290.299    -286.243     -69.107
  P      295.069    -284.866     -70.529
  C      296.372    -282.992     -71.778
  O      295.606    -283.357     -70.652
  O      296.269    -285.695     -71.199
  O      294.798    -285.380     -69.156
  H      296.883    -285.980     -70.499
  H      296.410    -281.900     -71.844
  H      295.941    -283.384     -72.704
  H      297.399    -283.372     -71.666
  H      289.212    -281.672     -67.322
  H      290.727    -282.176     -68.031
  H      290.582    -282.024     -66.296

 3  4  5  6  7  8  9  10  11  12  13  23  27  28  29  30  32 0
 6-311+G(2d,p)
 ****
 34  35 0
 6-311+G(2d,p)
 ****
 1  2  14  15  16  17  18  19  20  21  22  24  25  26 0
 3-21G
 ****
 31  33  36  37  38  39  40  41  42  43  44  45  46 0
 3-21G
 ****


