%nproc=1
%NoSave
%Mem=1900MB
#P OB98/GEN NMR

erre ene a

0 1
  C      583.709     169.458    -458.415
  O      585.004     169.656    -457.885
  H      583.015     169.297    -457.587
  H      583.686     168.578    -459.065
  H      583.389     170.344    -458.972
  P      586.233     169.799    -458.908
  C      587.419     171.108    -457.014
  O      587.508     170.056    -457.962
  C      588.817     171.556    -456.585
  O      589.408     170.604    -455.675
  C      589.825     171.680    -457.725
  O      589.620     172.821    -458.541
  C      591.117     171.756    -456.925
  O      591.248     173.070    -456.352
  C      590.849     170.696    -455.825
  N      591.414     169.385    -456.147
  C      592.625     169.053    -455.525
  O      593.170     169.838    -454.750
  N      593.213     167.848    -455.829
  C      592.653     167.052    -456.688
  N      593.304     165.894    -456.985
  C      591.372     167.356    -457.353
  C      590.815     168.524    -457.046
  O      586.054     170.779    -460.026
  O      586.505     168.305    -459.417
  H      591.589     173.656    -457.051
  H      587.249     168.339    -460.063
  H      590.953     166.663    -458.065
  H      589.881     168.828    -457.506
  H      591.254     171.028    -454.864
  H      592.011     171.569    -457.529
  H      589.845     170.764    -458.331
  H      588.708     172.502    -456.040
  H      594.200     165.739    -456.543
  H      586.843     170.748    -456.155
  H      593.085     165.368    -457.824
  H      586.906     171.970    -457.454
  P      590.229     172.803    -460.030
  C      588.376     174.242    -461.160
  O      589.730     174.150    -460.747
  O      589.385     171.653    -460.742
  O      591.704     172.578    -460.119
  H      589.847     170.794    -460.700
  H      588.206     175.195    -461.617
  H      587.736     174.135    -460.309
  H      588.165     173.466    -461.865

 6  7  8  9  10  11  12  13  14  15  16  26  30  31  32  33  35 0
 6-311+G(2d,p)
 ****
 37  38 0
 6-311+G(2d,p)
 ****
 1  2  3  4  5  17  18  19  20  21  22  23  24  25 0
 3-21G
 ****
 27  28  29  34  36  39  40  41  42  43  44  45  46 0
 3-21G
 ****


