%nproc=1
%NoSave
%Mem=1900MB
#P OB98/GEN NMR

erre ene a

0 1
  C     -132.576     342.695     135.350
  O     -133.365     342.171     134.306
  H     -133.060     343.594     135.737
  H     -131.589     342.965     134.963
  H     -132.465     341.978     136.168
  P     -133.154     340.646     133.872
  C     -132.658     341.390     131.451
  O     -132.220     340.623     132.565
  C     -131.511     342.185     130.827
  O     -130.796     342.899     131.860
  C     -130.490     341.289     130.122
  O     -130.803     340.990     128.772
  C     -129.216     342.127     130.216
  O     -129.100     343.027     129.103
  C     -129.402     342.907     131.523
  N     -124.784     342.328     133.637
  C     -125.109     342.808     132.383
  N     -124.067     343.138     131.589
  N     -126.338     342.932     131.955
  C     -127.265     342.470     132.824
  C     -127.062     341.954     134.085
  C     -125.705     341.890     134.579
  O     -125.366     341.487     135.687
  N     -128.243     341.548     134.659
  C     -129.141     341.738     133.712
  N     -128.609     342.370     132.612
  O     -134.586     340.226     133.280
  O     -132.743     339.714     134.970
  H     -129.830     343.675     129.161
  H     -134.739     339.278     133.442
  H     -123.823     342.283     133.922
  H     -130.191     341.481     133.787
  H     -129.109     343.957     131.404
  H     -128.329     341.489     130.198
  H     -123.103     342.983     131.835
  H     -130.332     340.365     130.685
  H     -124.253     343.313     130.600
  H     -131.922     342.938     130.144
  H     -133.424     342.071     131.823
  H     -133.126     340.743     130.703
  P     -131.076     339.486     128.306
  C     -129.510     339.427     126.200
  O     -129.799     338.967     127.503
  O     -132.187     339.657     127.168
  O     -131.517     338.550     129.385
  H     -133.075     339.478     127.526
  H     -128.616     338.957     125.846
  H     -129.372     340.488     126.219
  H     -130.323     339.185     125.548

 6  7  8  9  10  11  12  13  14  15  26  29  33  34 0
 6-311+G(2d,p)
 ****
 36  38  39  40  41 0
 6-311+G(2d,p)
 ****
 1  2  3  4  5  16  17  18  19  20  21  22  23  24  25 0
 3-21G
 ****
 27  28  30  31  32  35  37  42  43  44  45  46  47 0
 3-21G
 ****
 48  49 0
 3-21G
 ****


