%nproc=1
%NoSave
%Mem=1900MB
#P OB98/GEN NMR

erre ene a

0 1
  C      295.525     449.818    -100.545
  O      294.243     449.664     -99.923
  P      293.765     450.602     -98.712
  C      291.544     451.460     -99.694
  O      292.874     451.796     -99.306
  C      291.239     451.913    -101.125
  O      292.136     451.283    -102.062
  C      289.830     451.585    -101.606
  O      288.895     452.509    -101.083
  C      290.012     451.639    -103.121
  O      289.970     453.000    -103.583
  C      291.422     451.059    -103.291
  N      292.046     447.656    -107.055
  C      292.149     449.001    -107.029
  N      291.961     449.839    -105.988
  C      291.663     449.149    -104.874
  C      291.518     447.776    -104.748
  C      291.724     447.010    -105.910
  N      291.605     445.641    -105.936
  N      291.178     447.436    -103.457
  C      291.136     448.583    -102.808
  N      291.420     449.646    -103.621
  O      294.868     451.053     -97.812
  O      292.705     449.714     -97.905
  H      290.023     452.979    -104.556
  H      292.695     449.985     -96.968
  H      292.416     449.469    -107.973
  H      290.910     448.694    -101.756
  H      291.980     451.578    -104.078
  H      289.238     451.087    -103.659
  H      289.561     450.565    -101.310
  H      291.419     452.994    -101.180
  H      290.849     451.946     -99.000
  H      291.733     445.169    -106.816
  H      291.318     445.157    -105.097
  H      291.421     450.376     -99.611
  P      287.832     452.041     -99.982
  C      288.914     453.597     -98.252
  O      288.506     452.274     -98.546
  O      287.239     450.688    -100.193
  O      286.710     453.183    -100.032
  H      285.848     452.798     -99.781
  H      289.874     453.797     -98.736
  H      289.033     453.696     -97.170
  H      288.171     454.322     -98.597
  H      295.633     449.092    -101.324
  H      296.295     449.676     -99.816
  H      295.604     450.801    -100.960

 3  4  5  6  7  8  9  10  11  12  22  25  29  30  31  32 0
 6-311+G(2d,p)
 ****
 33  36  37 0
 6-311+G(2d,p)
 ****
 1  2  13  14  15  16  17  18  19  20  21  23  24  26 0
 3-21G
 ****
 27  28  34  35  38  39  40  41  42  43  44  45  46  47  48 0
 3-21G
 ****


