%nproc=1
%NoSave
%Mem=1900MB
#P OB98/GEN NMR

erre ene a

0 1
  C     -364.224     378.907    -272.361
  O     -364.484     379.402    -271.058
  P     -363.424     380.444    -270.431
  C     -364.878     382.034    -268.925
  O     -364.240     381.797    -270.170
  C     -366.172     381.210    -268.828
  O     -365.857     379.817    -268.695
  C     -367.053     381.549    -267.628
  O     -367.770     382.751    -267.826
  C     -367.909     380.299    -267.528
  O     -368.984     380.357    -268.492
  C     -366.907     379.196    -267.910
  N     -366.375     378.473    -266.763
  C     -367.093     377.369    -266.327
  O     -368.130     376.995    -266.858
  N     -366.586     376.718    -265.226
  C     -365.485     377.090    -264.511
  O     -365.099     376.505    -263.503
  C     -364.772     378.286    -264.992
  C     -365.244     378.912    -266.085
  O     -362.527     380.752    -271.717
  O     -362.690     379.893    -269.255
  H     -363.026     380.637    -272.554
  H     -369.324     379.439    -268.575
  H     -367.078     375.897    -264.909
  H     -363.912     378.624    -264.450
  H     -364.745     379.797    -266.450
  H     -367.381     378.454    -268.585
  H     -368.363     380.171    -266.541
  H     -366.432     381.647    -266.722
  H     -366.736     381.342    -269.762
  H     -365.120     383.098    -268.854
  H     -364.195     381.760    -268.108
  P     -367.533     383.929    -266.757
  C     -366.814     385.770    -268.475
  O     -366.440     384.912    -267.409
  O     -366.727     383.145    -265.616
  O     -368.793     384.576    -266.280
  H     -366.050     382.538    -265.983
  H     -366.086     386.582    -268.540
  H     -367.801     386.191    -268.336
  H     -366.790     385.194    -269.427
  H     -365.002     378.231    -272.648
  H     -363.286     378.393    -272.367
  H     -364.188     379.723    -273.052

 3  4  5  6  7  8  9  10  11  12  13  24  28  29  30  31  32 0
 6-311+G(2d,p)
 ****
 33  34 0
 6-311+G(2d,p)
 ****
 1  2  14  15  16  17  18  19  20  21  22  23  25  26  27 0
 3-21G
 ****
 35  36  37  38  39  40  41  42  43  44  45 0
 3-21G
 ****


