%nproc=1
%NoSave
%Mem=1900MB
#P OB98/GEN NMR

erre ene a

0 1
  C      340.081    -160.844     255.831
  O      339.763    -160.534     254.488
  H      339.691    -161.840     256.060
  H      339.619    -160.122     256.510
  H      341.165    -160.852     255.974
  P      340.190    -159.102     253.914
  C      342.362    -160.205     253.055
  O      341.792    -159.130     253.789
  C      343.606    -159.732     252.305
  O      343.233    -158.865     251.214
  C      344.594    -158.944     253.159
  O      345.414    -159.825     253.913
  C      345.369    -158.207     252.081
  O      346.301    -159.110     251.452
  C      344.251    -157.836     251.087
  N      344.695    -152.816     250.488
  C      345.607    -153.821     250.236
  N      346.822    -153.430     249.790
  N      345.356    -155.091     250.417
  C      344.129    -155.327     250.934
  C      343.148    -154.416     251.239
  C      343.411    -153.017     250.973
  O      342.619    -152.099     251.161
  N      342.068    -155.019     251.835
  C      342.376    -156.302     251.835
  N      343.625    -156.543     251.307
  O      339.660    -157.912     254.653
  O      339.708    -159.128     252.389
  H      346.933    -159.392     252.138
  H      338.808    -158.759     252.298
  H      344.948    -151.851     250.337
  H      341.737    -157.099     252.202
  H      344.601    -157.844     250.048
  H      345.944    -157.368     252.469
  H      347.122    -152.468     249.776
  H      344.083    -158.210     253.792
  H      347.521    -154.152     249.657
  H      344.084    -160.616     251.860
  H      341.603    -160.566     252.353
  H      342.633    -161.025     253.730
  P      345.940    -159.429     255.380
  C      344.043    -160.699     256.598
  O      344.638    -159.445     256.313
  O      346.737    -158.176     255.442
  O      346.724    -160.729     255.880
  H      347.664    -160.753     255.572
  H      343.190    -160.554     257.227
  H      344.752    -161.325     257.098
  H      343.738    -161.165     255.684

 6  7  8  9  10  11  12  13  14  15  26  29  33  34 0
 6-311+G(2d,p)
 ****
 36  38  39  40  41 0
 6-311+G(2d,p)
 ****
 1  2  3  4  5  16  17  18  19  20  21  22  23  24  25 0
 3-21G
 ****
 27  28  30  31  32  35  37  42  43  44  45  46  47 0
 3-21G
 ****
 48  49 0
 3-21G
 ****


