%nproc=1
%NoSave
%Mem=1900MB
#P OB98/GEN NMR

erre ene a

0 1
  C     -105.955     266.664     -81.456
  O     -106.831     267.165     -82.444
  H     -106.521     266.021     -80.777
  H     -105.531     267.493     -80.882
  H     -105.153     266.080     -81.914
  P     -106.181     268.067     -83.601
  C     -107.128     270.349     -82.812
  O     -105.977     269.533     -82.971
  C     -106.870     271.453     -81.788
  O     -105.730     272.248     -82.231
  C     -108.050     272.416     -81.583
  O     -108.069     272.809     -80.202
  C     -107.649     273.624     -82.415
  O     -108.322     274.815     -82.009
  C     -106.141     273.628     -82.172
  N     -105.264     278.367     -83.627
  C     -105.986     277.876     -82.556
  N     -106.567     278.788     -81.748
  N     -106.128     276.603     -82.300
  C     -105.465     275.803     -83.175
  C     -104.724     276.163     -84.273
  C     -104.595     277.576     -84.560
  O     -103.984     278.069     -85.504
  N     -104.235     275.055     -84.925
  C     -104.682     274.032     -84.219
  N     -105.432     274.436     -83.146
  O     -107.397     268.261     -84.622
  O     -104.979     267.484     -84.267
  H     -108.145     275.502     -82.685
  H     -107.367     267.579     -85.319
  H     -105.197     279.358     -83.784
  H     -104.498     272.988     -84.438
  H     -105.878     274.026     -81.182
  H     -107.877     273.447     -83.474
  H     -106.462     279.784     -81.852
  H     -109.023     272.003     -81.864
  H     -107.066     278.448     -80.932
  H     -106.574     270.988     -80.838
  H     -107.961     269.727     -82.466
  H     -107.392     270.793     -83.779
  P     -109.022     271.998     -79.202
  C     -110.813     273.878     -79.348
  O     -110.528     272.491     -79.442
  O     -108.662     272.634     -77.777
  O     -108.812     270.520     -79.217
  H     -108.822     271.979     -77.074
  H     -111.854     274.042     -79.533
  H     -110.234     274.411     -80.073
  H     -110.566     274.227     -78.367

 6  7  8  9  10  11  12  13  14  15  26  29  33  34 0
 6-311+G(2d,p)
 ****
 36  38  39  40  41 0
 6-311+G(2d,p)
 ****
 1  2  3  4  5  16  17  18  19  20  21  22  23  24  25 0
 3-21G
 ****
 27  28  30  31  32  35  37  42  43  44  45  46  47 0
 3-21G
 ****
 48  49 0
 3-21G
 ****


