%nproc=1
%NoSave
%Mem=1900MB
#P OB98/GEN NMR

erre ene a

0 1
  C      262.575     -86.292    -279.872
  O      263.667     -86.678    -279.034
  P      263.304     -87.124    -277.535
  C      263.465     -84.895    -276.224
  O      262.616     -85.884    -276.786
  C      262.669     -83.731    -275.624
  O      261.818     -84.188    -274.539
  C      263.549     -82.609    -275.066
  O      262.858     -81.375    -275.278
  C      263.576     -82.905    -273.579
  O      263.930     -81.744    -272.828
  C      262.140     -83.415    -273.365
  N      261.984     -84.197    -272.141
  C      262.032     -83.500    -270.932
  O      262.270     -82.291    -270.921
  N      261.851     -84.194    -269.762
  C      261.696     -85.480    -269.794
  N      261.526     -86.113    -268.600
  C      261.697     -86.265    -271.044
  C      261.842     -85.564    -272.166
  O      264.736     -87.248    -276.831
  O      262.547     -88.411    -277.463
  H      263.844     -81.959    -271.875
  H      264.807     -88.104    -276.367
  H      261.584     -87.338    -271.020
  H      261.853     -86.048    -273.133
  H      261.436     -82.575    -273.317
  H      264.300     -83.696    -273.362
  H      264.539     -82.562    -275.527
  H      262.013     -83.329    -276.407
  H      261.524     -85.539    -267.764
  H      264.140     -84.507    -276.992
  H      261.398     -87.107    -268.508
  H      264.104     -85.362    -275.468
  P      263.176     -80.543    -276.611
  C      265.392     -79.555    -275.770
  O      264.777     -80.458    -276.666
  O      262.794     -79.051    -276.155
  O      262.476     -80.922    -277.870
  H      262.881     -78.448    -276.913
  H      266.476     -79.685    -275.827
  H      265.065     -79.747    -274.746
  H      265.151     -78.523    -276.055
  H      262.946     -86.019    -280.838
  H      262.068     -85.457    -279.435
  H      261.894     -87.111    -279.970

 3  4  5  6  7  8  9  10  11  12  13  21  23  27  28  29  30  32 0
 6-311+G(2d,p)
 ****
 34  35 0
 6-311+G(2d,p)
 ****
 1  2  14  15  16  17  18  19  20  22  24  25  26 0
 3-21G
 ****
 31  33  36  37  38  39  40  41  42  43  44  45  46 0
 3-21G
 ****


