%nproc=1
%NoSave
%Mem=1900MB
#P OB98/GEN NMR

erre ene a

0 1
  C     -259.769     -49.995    -101.275
  O     -260.563     -50.648    -102.246
  H     -258.821     -49.665    -101.716
  H     -260.312     -49.120    -100.908
  H     -259.573     -50.669    -100.435
  P     -259.890     -51.907    -102.986
  C     -257.577     -52.355    -104.071
  O     -258.497     -51.385    -103.594
  C     -256.530     -51.701    -104.957
  O     -257.150     -51.149    -106.138
  C     -255.786     -50.536    -104.316
  O     -254.766     -50.978    -103.430
  C     -255.205     -49.856    -105.549
  O     -254.012     -50.551    -105.969
  C     -256.319     -50.048    -106.587
  N     -256.934     -45.642    -109.161
  C     -255.978     -46.595    -109.219
  N     -255.872     -47.729    -108.497
  C     -256.904     -47.853    -107.648
  C     -257.953     -46.963    -107.476
  C     -257.945     -45.807    -108.276
  N     -258.916     -44.831    -108.190
  N     -258.831     -47.429    -106.518
  C     -258.327     -48.580    -106.123
  N     -257.154     -48.876    -106.772
  O     -260.808     -52.107    -104.290
  O     -259.808     -53.160    -102.179
  H     -253.382     -50.487    -105.229
  H     -260.879     -53.061    -104.481
  H     -255.187     -46.423    -109.947
  H     -258.770     -49.232    -105.381
  H     -255.912     -50.332    -107.565
  H     -254.927     -48.813    -105.374
  H     -256.480     -49.846    -103.818
  H     -255.826     -52.481    -105.284
  H     -258.118     -53.118    -104.648
  H     -258.969     -44.135    -108.914
  H     -259.677     -44.971    -107.529
  H     -257.103     -52.842    -103.210
  P     -254.455     -50.065    -102.146
  C     -253.859     -47.549    -101.893
  O     -253.810     -48.711    -102.718
  O     -253.205     -50.811    -101.466
  O     -255.591     -49.905    -101.189
  H     -253.181     -50.609    -100.511
  H     -253.394     -46.730    -102.402
  H     -253.340     -47.740    -100.977
  H     -254.879     -47.305    -101.681

 6  7  8  9  10  11  12  13  14  15  25  28  32  33  34  35 0
 6-311+G(2d,p)
 ****
 36  39  40 0
 6-311+G(2d,p)
 ****
 1  2  3  4  5  16  17  18  19  20  21  22  23  24 0
 3-21G
 ****
 26  27  29  30  31  37  38  41  42  43  44  45  46  47  48 0
 3-21G
 ****


