%nproc=1
%NoSave
%Mem=1900MB
#P OB98/GEN NMR

erre ene a

0 1
  C      162.842    -362.582    -246.154
  O      162.178    -361.313    -246.115
  P      162.994    -360.109    -245.424
  C      162.237    -360.216    -242.950
  O      163.249    -360.519    -243.890
  C      162.762    -360.340    -241.503
  O      163.961    -359.528    -241.332
  C      161.748    -359.902    -240.441
  O      161.948    -360.753    -239.294
  C      162.207    -358.485    -240.125
  O      161.667    -357.958    -238.928
  C      163.714    -358.674    -240.178
  N      165.902    -354.913    -237.514
  C      165.213    -356.003    -237.125
  N      164.649    -356.965    -237.898
  C      164.876    -356.703    -239.207
  C      165.557    -355.629    -239.747
  C      166.088    -354.695    -238.848
  N      166.780    -353.566    -239.225
  N      165.557    -355.697    -241.142
  C      164.809    -356.757    -241.407
  N      164.452    -357.440    -240.283
  O      161.928    -358.930    -245.341
  O      164.218    -359.723    -246.182
  H      161.929    -358.509    -238.173
  H      162.055    -358.297    -246.058
  H      165.092    -356.129    -236.059
  H      164.517    -357.082    -242.397
  H      164.093    -359.212    -239.288
  H      161.877    -357.809    -240.945
  H      160.702    -359.968    -240.763
  H      163.043    -361.385    -241.340
  H      161.387    -360.898    -243.081
  H      167.105    -352.948    -238.496
  H      166.919    -353.359    -240.193
  H      161.858    -359.206    -243.141
  P      161.089    -362.105    -239.186
  C      159.207    -361.309    -237.643
  O      159.577    -361.615    -238.978
  O      161.476    -362.573    -237.704
  O      161.342    -363.127    -240.238
  H      161.376    -361.844    -237.064
  H      158.177    -360.908    -237.669
  H      159.872    -360.545    -237.230
  H      159.219    -362.210    -237.033
  H      162.210    -363.301    -246.632
  H      163.056    -362.903    -245.156
  H      163.756    -362.490    -246.703

 3  4  5  6  7  8  9  10  11  12  22  25  29  30  31  32 0
 6-311+G(2d,p)
 ****
 33  36  37 0
 6-311+G(2d,p)
 ****
 1  2  13  14  15  16  17  18  19  20  21  23  24  26 0
 3-21G
 ****
 27  28  34  35  38  39  40  41  42  43  44  45  46  47  48 0
 3-21G
 ****


