%nproc=1
%NoSave
%Mem=1900MB
#P OB98/GEN NMR

erre ene a

0 1
  C     -897.620     483.213     -51.432
  O     -896.970     483.032     -50.199
  H     -896.890     483.541     -52.178
  H     -898.400     483.980     -51.364
  H     -898.070     482.274     -51.773
  P     -897.880     482.705     -48.907
  C     -899.120     484.892     -48.318
  O     -897.980     484.080     -48.094
  C     -899.060     486.130     -47.423
  O     -899.130     485.748     -46.032
  C     -897.760     486.910     -47.563
  O     -897.760     487.662     -48.769
  C     -897.750     487.725     -46.282
  O     -898.610     488.871     -46.380
  C     -898.320     486.698     -45.282
  N     -897.280     486.020     -44.502
  C     -897.220     486.374     -43.152
  O     -898.000     487.181     -42.667
  N     -896.220     485.780     -42.384
  C     -895.400     484.924     -42.908
  N     -894.450     484.391     -42.098
  C     -895.450     484.533     -44.337
  C     -896.410     485.109     -45.078
  O     -897.480     481.514     -48.094
  O     -899.360     482.536     -49.519
  H     -898.640     489.263     -45.475
  H     -899.520     481.608     -49.771
  H     -894.760     483.812     -44.736
  H     -896.520     484.888     -46.116
  H     -899.010     487.197     -44.575
  H     -896.760     488.077     -46.030
  H     -896.890     486.230     -47.547
  H     -899.920     486.767     -47.634
  H     -894.430     484.686     -41.134
  H     -900.000     484.297     -48.070
  H     -893.820     483.654     -42.382
  H     -899.180     485.191     -49.366
  P     -896.590     487.482     -49.854
  C     -895.060     489.266     -48.792
  O     -895.830     488.900     -49.922
  O     -897.030     486.936     -51.171
  O     -895.540     486.559     -49.083
  H     -895.860     485.622     -49.026
  H     -894.610     490.222     -48.962
  H     -894.295     488.535     -48.629
  H     -895.693     489.318     -47.931

 6  7  8  9  10  11  12  13  14  15  16  26  30  31  32  33  35 0
 6-311+G(2d,p)
 ****
 37  38 0
 6-311+G(2d,p)
 ****
 1  2  3  4  5  17  18  19  20  21  22  23  24  25 0
 3-21G
 ****
 27  28  29  34  36  39  40  41  42  43  44  45  46 0
 3-21G
 ****


