%nproc=1
%NoSave
%Mem=1900MB
#P OB98/GEN NMR

erre ene a

0 1
  C      101.134    -520.680    -323.334
  O       99.776    -521.035    -323.178
  P       98.665    -519.917    -322.875
  C       98.154    -518.348    -320.894
  O       98.970    -519.417    -321.381
  C       97.879    -518.516    -319.396
  O       99.118    -518.502    -318.647
  C       97.020    -517.406    -318.800
  O       95.660    -517.598    -319.135
  C       97.333    -517.561    -317.316
  O       96.547    -518.608    -316.721
  C       98.832    -517.961    -317.340
  N       99.713    -516.844    -317.012
  C      100.451    -516.976    -315.833
  O      100.317    -517.976    -315.122
  N      101.287    -515.954    -315.460
  C      101.353    -514.884    -316.198
  N      102.194    -513.899    -315.763
  C      100.563    -514.699    -317.432
  C       99.769    -515.704    -317.773
  O       97.256    -520.323    -323.140
  O       99.139    -518.680    -323.774
  H       97.025    -518.878    -315.903
  H       98.956    -518.833    -324.730
  H      100.653    -513.778    -317.999
  H       99.158    -515.648    -318.660
  H       99.017    -518.776    -316.626
  H       97.132    -516.647    -316.752
  H       97.380    -516.433    -319.144
  H       97.403    -519.492    -319.242
  H      102.696    -514.056    -314.901
  H       97.205    -518.358    -321.439
  H      102.298    -513.006    -316.237
  H       98.652    -517.387    -321.094
  P       94.719    -516.323    -319.409
  C       94.402    -514.007    -318.360
  O       94.851    -515.341    -318.163
  O       93.320    -516.645    -319.842
  O       95.496    -515.539    -320.578
  H       94.855    -515.257    -321.249
  H       94.233    -513.545    -317.379
  H       93.461    -513.995    -318.929
  H       95.160    -513.437    -318.898
  H      101.712    -521.559    -323.529
  H      101.486    -520.213    -322.438
  H      101.233    -519.999    -324.154

 3  4  5  6  7  8  9  10  11  12  13  23  27  28  29  30  32 0
 6-311+G(2d,p)
 ****
 34  35 0
 6-311+G(2d,p)
 ****
 1  2  14  15  16  17  18  19  20  21  22  24  25  26 0
 3-21G
 ****
 31  33  36  37  38  39  40  41  42  43  44  45  46 0
 3-21G
 ****


