%nproc=1
%NoSave
%Mem=1900MB
#P OB98/GEN NMR

erre ene a

0 1
  C     -132.307     162.567     157.809
  O     -132.070     161.866     156.602
  H     -133.141     163.256     157.655
  H     -131.424     163.145     158.096
  H     -132.571     161.868     158.607
  P     -130.839     160.845     156.539
  C     -132.534     158.889     156.531
  O     -131.374     159.456     157.131
  C     -132.314     157.408     156.229
  O     -131.783     156.733     157.388
  C     -133.583     156.649     155.854
  O     -133.981     156.959     154.535
  C     -133.134     155.216     156.081
  O     -132.332     154.750     154.987
  C     -132.275     155.367     157.359
  N     -132.993     155.054     158.591
  C     -133.140     153.694     158.888
  O     -132.686     152.840     158.126
  N     -133.816     153.344     160.034
  C     -134.263     154.263     160.833
  N     -134.915     153.850     161.954
  C     -134.094     155.708     160.573
  C     -133.472     156.029     159.441
  O     -129.554     161.320     157.141
  O     -130.677     160.533     154.976
  H     -132.148     153.802     155.170
  H     -130.014     161.128     154.576
  H     -134.475     156.440     161.272
  H     -133.308     157.070     159.177
  H     -131.391     154.718     157.305
  H     -133.976     154.528     156.183
  H     -134.387     156.880     156.571
  H     -131.563     157.331     155.430
  H     -134.985     152.848     162.098
  H     -132.714     159.439     155.597
  H     -135.160     154.463     162.717
  H     -133.406     159.015     157.181
  P     -135.527     157.016     154.110
  C     -135.499     159.542     154.611
  O     -136.141     158.299     154.868
  O     -136.286     155.749     154.315
  O     -135.485     157.502     152.587
  H     -135.227     156.746     151.993
  H     -135.988     160.317     155.164
  H     -135.552     159.762     153.565
  H     -134.474     159.483     154.911

 6  7  8  9  10  11  12  13  14  15  16  26  30  31  32  33  35 0
 6-311+G(2d,p)
 ****
 37  38 0
 6-311+G(2d,p)
 ****
 1  2  3  4  5  17  18  19  20  21  22  23  24  25 0
 3-21G
 ****
 27  28  29  34  36  39  40  41  42  43  44  45  46 0
 3-21G
 ****


