%nproc=1
%NoSave
%Mem=1900MB
#P OB98/GEN NMR

erre ene a

0 1
  C      306.555    -186.911    -469.012
  O      305.380    -187.470    -468.465
  H      306.879    -187.528    -469.857
  H      307.347    -186.893    -468.261
  H      306.356    -185.895    -469.373
  P      304.733    -186.716    -467.206
  C      304.812    -187.126    -464.640
  O      305.446    -187.330    -465.902
  C      305.861    -187.033    -463.530
  O      306.571    -188.297    -463.438
  C      306.909    -185.924    -463.755
  O      307.230    -185.329    -462.486
  C      308.119    -186.698    -464.253
  O      309.335    -185.990    -464.033
  C      307.980    -187.989    -463.456
  N      312.221    -190.665    -462.952
  C      311.691    -189.668    -462.162
  N      312.405    -189.310    -461.072
  N      310.566    -189.053    -462.422
  C      309.945    -189.524    -463.531
  C      310.366    -190.500    -464.401
  C      311.627    -191.156    -464.114
  O      312.149    -192.037    -464.790
  N      309.464    -190.662    -465.426
  C      308.505    -189.787    -465.176
  N      308.756    -189.079    -464.037
  O      303.247    -187.314    -467.128
  O      304.734    -185.222    -467.277
  H      309.475    -185.926    -463.064
  H      302.626    -186.657    -466.758
  H      313.092    -191.101    -462.715
  H      307.620    -189.634    -465.786
  H      308.319    -187.878    -462.418
  H      308.018    -186.885    -465.331
  H      313.267    -189.759    -460.793
  H      306.587    -185.153    -464.451
  H      312.040    -188.583    -460.466
  H      305.343    -186.891    -462.575
  H      304.140    -187.965    -464.441
  H      304.230    -186.198    -464.679
  P      307.632    -183.777    -462.477
  C      309.819    -182.372    -462.516
  O      309.240    -183.669    -462.453
  O      307.203    -183.300    -461.000
  O      306.948    -182.964    -463.521
  H      306.419    -182.734    -461.055
  H      310.885    -182.456    -462.491
  H      309.487    -181.792    -461.680
  H      309.520    -181.892    -463.424

 6  7  8  9  10  11  12  13  14  15  26  29  33  34 0
 6-311+G(2d,p)
 ****
 36  38  39  40  41 0
 6-311+G(2d,p)
 ****
 1  2  3  4  5  16  17  18  19  20  21  22  23  24  25 0
 3-21G
 ****
 27  28  30  31  32  35  37  42  43  44  45  46  47 0
 3-21G
 ****
 48  49 0
 3-21G
 ****


