%nproc=1
%NoSave
%Mem=1900MB
#P OB98/GEN NMR

erre ene a

0 1
  C      100.632      55.812    -142.057
  O      100.886      57.203    -142.066
  P       99.673      58.236    -141.919
  C       97.626      58.650    -143.416
  O       99.035      58.450    -143.375
  C       97.070      58.228    -144.775
  O       97.153      56.797    -144.929
  C       95.602      58.579    -144.980
  O       95.446      59.955    -145.263
  C       95.234      57.645    -146.128
  O       95.642      58.206    -147.386
  C       96.070      56.398    -145.800
  N       92.444      52.892    -146.554
  C       92.901      53.896    -147.331
  N       93.846      54.817    -147.042
  C       94.313      54.636    -145.796
  C       93.919      53.679    -144.875
  C       92.951      52.756    -145.304
  N       92.522      51.691    -144.544
  N       94.610      53.840    -143.688
  C       95.395      54.877    -143.890
  N       95.297      55.349    -145.168
  O       99.989      59.492    -141.177
  O       98.547      57.394    -141.154
  H       95.197      59.069    -147.477
  H       98.340      57.829    -140.305
  H       92.454      53.966    -148.319
  H       96.060      55.309    -143.153
  H       96.529      55.969    -146.698
  H       94.159      57.457    -146.189
  H       95.024      58.299    -144.091
  H       97.690      58.689    -145.554
  H       97.424      59.712    -143.246
  H       91.936      51.010    -145.001
  H       93.095      51.401    -143.755
  H       97.154      58.069    -142.617
  P       94.081      60.698    -144.876
  C       91.627      59.971    -145.026
  O       92.899      59.932    -145.641
  O       94.086      62.182    -145.034
  O       93.845      60.278    -143.348
  H       93.392      61.002    -142.879
  H       91.597      59.257    -144.199
  H       90.872      59.693    -145.765
  H       91.405      60.975    -144.652
  H      101.554      55.280    -142.165
  H       99.980      55.563    -142.868
  H      100.170      55.540    -141.131

 3  4  5  6  7  8  9  10  11  12  22  25  29  30  31  32 0
 6-311+G(2d,p)
 ****
 33  36  37 0
 6-311+G(2d,p)
 ****
 1  2  13  14  15  16  17  18  19  20  21  23  24  26 0
 3-21G
 ****
 27  28  34  35  38  39  40  41  42  43  44  45  46  47  48 0
 3-21G
 ****


