%nproc=1
%NoSave
%Mem=1900MB
#P OB98/GEN NMR

erre ene a

0 1
  C     -176.852      -6.337      66.612
  O     -177.081      -7.749      66.511
  P     -178.543      -8.412      66.551
  C     -180.217      -9.214      68.358
  O     -178.907      -8.730      68.083
  C     -180.245      -9.996      69.673
  O     -179.494     -11.228      69.540
  C     -179.599      -9.294      70.860
  O     -180.393      -8.234      71.359
  C     -179.418     -10.458      71.834
  O     -180.616     -10.700      72.586
  C     -179.146     -11.641      70.884
  N     -177.773     -12.114      70.945
  C     -177.489     -13.093      71.904
  O     -178.355     -13.456      72.699
  N     -176.222     -13.620      71.945
  C     -175.296     -13.141      71.174
  N     -174.064     -13.717      71.247
  C     -175.522     -12.017      70.246
  C     -176.771     -11.558      70.182
  O     -178.701      -9.586      65.640
  O     -179.553      -7.234      66.153
  H     -180.359      -7.614      65.757
  H     -180.405     -11.397      73.237
  H     -174.712     -11.618      69.651
  H     -177.028     -10.742      69.514
  H     -179.823     -12.472      71.113
  H     -178.617     -10.271      72.554
  H     -178.611      -8.915      70.562
  H     -181.289     -10.245      69.901
  H     -173.946     -14.493      71.887
  H     -180.518      -9.882      67.542
  H     -173.284     -13.434      70.675
  H     -180.914      -8.369      68.389
  P     -179.909      -6.741      71.020
  C     -177.739      -5.389      71.464
  O     -178.573      -6.460      71.860
  O     -181.009      -5.820      71.734
  O     -179.809      -6.439      69.561
  H     -181.208      -5.050      71.167
  H     -177.194      -5.025      72.342
  H     -178.315      -4.563      71.037
  H     -177.017      -5.747      70.726
  H     -175.801      -6.141      66.560
  H     -177.236      -5.979      67.545
  H     -177.348      -5.837      65.807

 3  4  5  6  7  8  9  10  11  12  13  24  27  28  29  30  32 0
 6-311+G(2d,p)
 ****
 34  35 0
 6-311+G(2d,p)
 ****
 1  2  14  15  16  17  18  19  20  21  22  23  25  26 0
 3-21G
 ****
 31  33  36  37  38  39  40  41  42  43  44  45  46 0
 3-21G
 ****


