%nproc=1
%NoSave
%Mem=1900MB
#P OB98/GEN NMR

erre ene a

0 1
  C     -148.886     154.134     474.277
  O     -149.479     153.287     475.249
  P     -149.092     153.407     476.801
  C     -150.094     152.286     478.887
  O     -150.355     152.811     477.590
  C     -151.242     151.381     479.327
  O     -152.458     152.168     479.360
  C     -151.552     150.202     478.405
  O     -150.750     149.051     478.626
  C     -152.990     149.896     478.811
  O     -152.997     149.154     480.046
  C     -153.570     151.296     479.032
  N     -157.780     150.920     476.153
  C     -157.402     150.293     477.288
  N     -156.257     150.435     477.987
  C     -155.473     151.365     477.420
  C     -155.722     152.093     476.265
  C     -156.945     151.841     475.617
  N     -157.338     152.499     474.471
  N     -154.672     152.945     475.989
  C     -153.812     152.744     476.964
  N     -154.254     151.805     477.857
  O     -148.642     154.762     477.223
  O     -147.973     152.285     477.016
  H     -153.916     149.166     480.378
  H     -147.489     152.454     477.848
  H     -158.116     149.577     477.690
  H     -152.862     153.247     477.062
  H     -154.270     151.333     479.873
  H     -153.522     149.288     478.073
  H     -151.533     150.504     477.351
  H     -151.040     151.034     480.348
  H     -150.009     153.126     479.588
  H     -158.280     152.348     474.152
  H     -156.793     153.296     474.171
  H     -149.144     151.746     478.882
  P     -150.991     147.791     477.655
  C     -149.439     145.859     476.804
  O     -149.604     146.985     477.643
  O     -151.542     148.138     476.317
  O     -151.952     146.854     478.524
  H     -151.549     146.470     479.321
  H     -148.388     145.561     476.824
  H     -149.711     146.098     475.772
  H     -150.049     145.030     477.167
  H     -149.276     153.895     473.310
  H     -147.826     153.991     474.279
  H     -149.109     155.154     474.509

 3  4  5  6  7  8  9  10  11  12  22  25  29  30  31  32 0
 6-311+G(2d,p)
 ****
 33  36  37 0
 6-311+G(2d,p)
 ****
 1  2  13  14  15  16  17  18  19  20  21  23  24  26 0
 3-21G
 ****
 27  28  34  35  38  39  40  41  42  43  44  45  46  47  48 0
 3-21G
 ****


