%nproc=1
%NoSave
%Mem=1900MB
#P OB98/GEN NMR

erre ene a

0 1
  C      169.610    1067.875    -895.340
  O      170.627    1068.846    -895.620
  P      170.433    1069.699    -896.960
  C      171.176    1071.912    -895.800
  O      171.372    1070.996    -896.880
  C      172.353    1072.892    -895.700
  O      173.523    1072.276    -895.130
  C      172.789    1073.466    -897.030
  O      171.907    1074.521    -897.420
  C      174.203    1073.963    -896.710
  O      174.185    1075.272    -896.120
  C      174.671    1072.893    -895.710
  N      179.523    1071.545    -896.470
  C      179.011    1072.742    -896.020
  N      179.904    1073.657    -895.680
  N      177.714    1072.955    -895.870
  C      176.957    1071.915    -896.240
  C      177.343    1070.663    -896.700
  C      178.766    1070.424    -896.850
  O      179.285    1069.380    -897.240
  N      176.257    1069.840    -896.920
  C      175.224    1070.636    -896.720
  N      175.579    1071.879    -896.240
  O      168.938    1070.316    -896.780
  O      170.529    1068.905    -898.220
  H      175.102    1075.536    -895.930
  H      168.330    1069.902    -897.420
  H      180.509    1071.406    -896.580
  H      174.201    1070.335    -896.870
  H      175.246    1073.352    -894.860
  H      174.807    1074.047    -897.610
  H      180.891    1073.570    -895.760
  H      172.817    1072.679    -897.780
  H      179.547    1074.574    -895.330
  H      172.029    1073.705    -895.020
  H      171.051    1071.379    -894.850
  H      170.227    1072.455    -895.990
  P      171.002    1074.306    -898.710
  C      168.765    1074.653    -897.440
  O      169.616    1075.072    -898.490
  O      170.584    1072.741    -898.610
  O      171.685    1074.564    -900.000
  H      170.673    1072.310    -899.510
  H      168.211    1075.534    -897.070
  H      169.331    1074.247    -896.600
  H      168.057    1073.921    -897.830
  H      169.842    1067.369    -894.427
  H      169.564    1067.165    -896.140
  H      168.664    1068.366    -895.245

 3  4  5  6  7  8  9  10  11  12  23  26  30  31 0
 6-311+G(2d,p)
 ****
 33  35  36  37  38 0
 6-311+G(2d,p)
 ****
 1  2  13  14  15  16  17  18  19  20  21  22  24  25 0
 3-21G
 ****
 27  28  29  32  34  39  40  41  42  43  44  45  46  47  48  49 0
 3-21G
 ****


