%nproc=1
%NoSave
%Mem=1900MB
#P OB98/GEN NMR

erre ene a

0 1
  C      602.739     511.317     383.329
  O      603.575     511.357     382.170
  P      605.101     511.826     382.327
  C      605.407     512.392     379.827
  O      605.845     511.588     380.920
  C      606.286     512.160     378.598
  O      607.677     512.355     378.904
  C      606.191     510.744     378.050
  O      604.963     510.558     377.357
  C      607.437     510.667     377.186
  O      607.211     511.274     375.896
  C      608.438     511.517     377.993
  N      609.419     510.709     378.714
  C      610.558     510.336     377.980
  O      610.661     510.650     376.790
  N      611.533     509.599     378.609
  C      611.384     509.274     379.857
  N      612.385     508.541     380.424
  C      610.199     509.640     380.655
  C      609.263     510.352     380.023
  O      605.819     511.300     383.527
  O      604.975     513.429     382.383
  H      607.022     512.224     376.074
  H      605.706     513.777     382.926
  H      610.131     509.343     381.693
  H      608.361     510.657     380.547
  H      608.986     512.203     377.330
  H      607.748     509.642     377.004
  H      606.271     510.019     378.873
  H      605.994     512.878     377.828
  H      613.184     508.300     379.853
  H      605.439     513.441     380.111
  H      612.389     508.283     381.404
  H      604.357     512.150     379.614
  P      603.917     509.502     377.971
  C      603.180     508.355     375.775
  O      602.813     509.191     376.845
  O      603.107     510.393     379.043
  O      604.536     508.305     378.626
  H      602.860     509.838     379.800
  H      602.271     507.989     375.291
  H      603.763     507.496     376.111
  H      603.756     508.925     375.047
  H      601.760     510.985     383.052
  H      602.676     512.296     383.757
  H      603.155     510.640     384.046

 3  4  5  6  7  8  9  10  11  12  13  23  27  28  29  30  32 0
 6-311+G(2d,p)
 ****
 34  35 0
 6-311+G(2d,p)
 ****
 1  2  14  15  16  17  18  19  20  21  22  24  25  26 0
 3-21G
 ****
 31  33  36  37  38  39  40  41  42  43  44  45  46 0
 3-21G
 ****


