%nproc=1
%NoSave
%Mem=1900MB
#P OB98/GEN NMR

erre ene a

0 1
  C      218.955     -73.699    -371.702
  O      219.916     -73.787    -372.733
  H      218.144     -73.037    -372.028
  H      219.413     -73.274    -370.800
  H      218.540     -74.686    -371.480
  P      221.200     -74.711    -372.451
  C      222.491     -73.086    -370.898
  O      221.743     -74.289    -370.999
  C      223.503     -73.182    -369.750
  O      222.783     -73.255    -368.487
  C      224.424     -74.413    -369.836
  O      225.736     -74.041    -369.393
  C      223.812     -75.369    -368.824
  O      224.755     -76.328    -368.352
  C      223.327     -74.382    -367.763
  N      222.465     -75.811    -363.006
  C      223.568     -75.187    -363.574
  N      224.602     -74.917    -362.751
  N      223.643     -74.883    -364.843
  C      222.527     -75.187    -365.543
  C      221.381     -75.815    -365.105
  C      221.316     -76.175    -363.701
  O      220.374     -76.748    -363.146
  N      220.487     -75.986    -366.135
  C      221.093     -75.470    -367.193
  N      222.335     -74.972    -366.883
  O      222.312     -74.117    -373.445
  O      220.995     -76.173    -372.644
  H      225.534     -75.835    -368.015
  H      222.934     -74.815    -373.725
  H      222.456     -76.041    -362.022
  H      220.687     -75.439    -368.194
  H      224.143     -74.018    -367.123
  H      222.969     -75.908    -369.275
  H      224.599     -75.103    -361.755
  H      224.480     -74.849    -370.839
  H      225.414     -74.453    -363.147
  H      224.095     -72.254    -369.721
  H      221.801     -72.249    -370.703
  H      223.015     -72.904    -371.841
  P      226.851     -73.780    -370.518
  C      227.835     -76.154    -370.877
  O      227.027     -75.113    -371.399
  O      228.210     -73.718    -369.662
  O      226.644     -72.521    -371.292
  H      228.535     -72.795    -369.624
  H      227.858     -76.969    -371.569
  H      227.428     -76.488    -369.946
  H      228.829     -75.790    -370.722

 6  7  8  9  10  11  12  13  14  15  26  29  33  34 0
 6-311+G(2d,p)
 ****
 36  38  39  40  41 0
 6-311+G(2d,p)
 ****
 1  2  3  4  5  16  17  18  19  20  21  22  23  24  25 0
 3-21G
 ****
 27  28  30  31  32  35  37  42  43  44  45  46  47 0
 3-21G
 ****
 48  49 0
 3-21G
 ****


