%nproc=1
%NoSave
%Mem=1900MB
#P OB98/GEN NMR

erre ene a

0 1
  C      426.505     868.265       6.127
  O      427.625     867.371       6.166
  P      427.603     866.112       7.163
  C      430.197     866.195       7.321
  O      429.039     865.380       7.111
  C      431.444     865.496       6.732
  O      431.681     864.224       7.396
  C      431.281     865.153       5.262
  O      431.281     866.239       4.352
  C      432.352     864.098       5.070
  O      433.641     864.670       4.850
  C      432.306     863.357       6.423
  N      431.620     862.058       6.345
  C      432.242     861.080       5.583
  O      433.278     861.267       4.961
  N      431.591     859.867       5.527
  C      430.399     859.574       6.117
  O      429.860     858.472       6.029
  C      429.784     860.652       6.902
  C      430.409     861.835       6.977
  O      426.426     865.211       7.039
  O      427.633     866.819       8.608
  H      433.744     865.416       5.485
  H      427.030     866.319       9.192
  H      432.035     859.139       4.982
  H      428.831     860.451       7.381
  H      429.980     862.648       7.532
  H      433.323     863.161       6.793
  H      432.141     863.465       4.193
  H      430.317     864.647       5.124
  H      432.312     866.138       6.919
  H      430.335     866.376       8.384
  H      430.036     867.170       6.842
  P      430.092     866.484       3.295
  C      431.489     867.426       1.311
  O      430.530     867.688       2.327
  O      428.697     866.498       3.825
  O      430.263     865.210       2.331
  H      429.383     864.945       1.998
  H      431.668     868.355       0.760
  H      431.099     866.669       0.622
  H      432.424     867.093       1.750
  H      426.691     869.039       5.412
  H      426.362     868.700       7.094
  H      425.626     867.724       5.845

 3  4  5  6  7  8  9  10  11  12  13  23  28  29  30  31  32 0
 6-311+G(2d,p)
 ****
 33  34 0
 6-311+G(2d,p)
 ****
 1  2  14  15  16  17  18  19  20  21  22  24  25  26  27 0
 3-21G
 ****
 35  36  37  38  39  40  41  42  43  44  45 0
 3-21G
 ****


