%nproc=1
%NoSave
%Mem=1900MB
#P OB98/GEN NMR

erre ene a

0 1
  C      428.684    1004.208    -895.684
  O      427.521    1003.755    -895.018
  H      428.631    1005.294    -895.775
  H      428.720    1003.779    -896.681
  H      429.579    1003.937    -895.125
  P      427.407    1002.166    -894.759
  C      427.255    1002.101    -892.147
  O      428.075    1001.924    -893.315
  C      428.125    1001.937    -890.896
  O      428.503    1000.558    -890.719
  C      429.417    1002.800    -890.923
  O      429.606    1003.413    -889.647
  C      430.499    1001.783    -891.194
  O      431.773    1002.191    -890.703
  C      429.910    1000.505    -890.538
  N      430.466     999.288    -891.154
  C      431.869     999.097    -891.007
  O      432.557     999.932    -890.395
  N      432.446     997.994    -891.587
  C      431.728     997.175    -892.289
  N      432.372     996.119    -892.850
  C      430.278     997.377    -892.502
  C      429.721     998.417    -891.921
  O      428.459    1001.551    -895.772
  O      426.023    1001.600    -894.890
  H      431.722    1002.212    -889.729
  H      428.358    1000.576    -895.874
  H      429.700     996.671    -893.112
  H      428.677     998.664    -892.017
  H      430.152    1000.485    -889.454
  H      430.595    1001.626    -892.287
  H      429.394    1003.559    -891.683
  H      427.497    1002.203    -890.017
  H      433.361     996.024    -892.682
  H      426.470    1001.327    -892.155
  H      431.890     995.444    -893.455
  H      426.792    1003.089    -892.173
  P      428.812    1004.806    -889.426
  C      427.967    1004.582    -886.952
  O      427.641    1004.522    -888.349
  O      428.031    1004.989    -890.787
  O      429.699    1005.923    -889.113
  H      428.501    1005.602    -891.372
  H      427.092    1004.372    -886.372
  H      428.328    1005.560    -886.712
  H      428.723    1003.858    -886.731

 6  7  8  9  10  11  12  13  14  15  16  26  30  31  32  33  35 0
 6-311+G(2d,p)
 ****
 37  38 0
 6-311+G(2d,p)
 ****
 1  2  3  4  5  17  18  19  20  21  22  23  24  25 0
 3-21G
 ****
 27  28  29  34  36  39  40  41  42  43  44  45  46 0
 3-21G
 ****


