%nproc=1
%NoSave
%Mem=1900MB
#P OB98/GEN NMR

erre ene a

0 1
  C      -45.266    -170.374     154.968
  O      -44.507    -171.031     153.972
  P      -44.886    -170.847     152.429
  C      -46.985    -171.034     150.959
  O      -46.434    -171.229     152.256
  C      -47.622    -172.328     150.454
  O      -48.831    -172.612     151.187
  C      -48.032    -172.286     148.987
  O      -46.905    -172.426     148.144
  C      -49.024    -173.442     148.926
  O      -48.333    -174.695     148.796
  C      -49.706    -173.345     150.299
  N      -54.219    -173.293     147.924
  C      -53.070    -173.950     147.660
  N      -51.894    -173.881     148.319
  C      -51.976    -173.007     149.336
  C      -53.067    -172.237     149.705
  C      -54.245    -172.423     148.963
  N      -55.439    -171.805     149.260
  N      -52.747    -171.433     150.783
  C      -51.486    -171.707     151.050
  N      -51.000    -172.698     150.243
  O      -43.962    -171.507     151.461
  O      -44.883    -169.260     152.224
  H      -47.939    -174.718     147.904
  H      -44.214    -169.022     151.553
  H      -53.101    -174.628     146.813
  H      -50.894    -171.232     151.820
  H      -49.855    -174.334     150.748
  H      -49.713    -173.360     148.081
  H      -48.558    -171.349     148.774
  H      -46.916    -173.149     150.635
  H      -46.179    -170.731     150.284
  H      -56.254    -172.119     148.755
  H      -55.556    -171.403     150.187
  H      -47.732    -170.234     150.998
  P      -47.066    -172.239     146.562
  C      -48.273    -173.460     144.659
  O      -48.072    -173.378     146.056
  O      -45.792    -172.124     145.793
  O      -47.945    -170.905     146.430
  H      -47.695    -170.432     145.616
  H      -48.958    -172.669     144.339
  H      -48.716    -174.430     144.424
  H      -47.325    -173.362     144.122
  H      -44.870    -170.612     155.933
  H      -46.285    -170.697     154.911
  H      -45.218    -169.316     154.814

 3  4  5  6  7  8  9  10  11  12  22  25  29  30  31  32 0
 6-311+G(2d,p)
 ****
 33  36  37 0
 6-311+G(2d,p)
 ****
 1  2  13  14  15  16  17  18  19  20  21  23  24  26 0
 3-21G
 ****
 27  28  34  35  38  39  40  41  42  43  44  45  46  47  48 0
 3-21G
 ****


