%nproc=1
%NoSave
%Mem=1900MB
#P OB98/GEN NMR

erre ene a

0 1
  C     -488.719     100.314     350.429
  O     -489.452      99.788     349.326
  P     -490.372     100.802     348.493
  C     -489.328     100.181     346.190
  O     -490.498     100.261     346.974
  C     -489.552      99.330     344.927
  O     -489.531      97.912     345.262
  C     -490.884      99.612     344.225
  O     -490.718      99.381     342.826
  C     -491.801      98.542     344.795
  O     -492.952      98.344     343.974
  C     -490.820      97.365     344.860
  N     -494.438      93.982     345.843
  C     -494.336      94.893     344.814
  N     -495.326      94.886     343.889
  N     -493.354      95.748     344.695
  C     -492.415      95.610     345.669
  C     -492.405      94.753     346.746
  C     -493.515      93.829     346.875
  O     -493.672      93.008     347.773
  N     -491.290      94.942     347.541
  C     -490.637      95.916     346.940
  N     -491.247      96.340     345.792
  O     -489.441     102.092     348.339
  O     -491.664     101.140     349.159
  H     -493.461      97.591     344.363
  H     -489.767     102.812     348.899
  H     -495.230      93.347     345.886
  H     -489.718      96.368     347.301
  H     -490.693      96.872     343.879
  H     -492.136      98.821     345.803
  H     -496.086      94.217     343.888
  H     -491.277     100.629     344.377
  H     -495.245      95.508     343.102
  H     -488.720      99.509     344.231
  H     -488.512      99.741     346.776
  H     -489.000     101.197     345.930
  P     -490.950     100.630     341.840
  C     -488.971     100.075     340.234
  O     -490.370     100.188     340.417
  O     -489.877     101.707     342.357
  O     -492.338     101.182     341.827
  H     -490.170     102.617     342.118
  H     -488.696      99.025     340.250
  H     -488.409     100.606     341.023
  H     -488.698     100.504     339.279
  H     -488.154      99.530     350.888
  H     -489.399     100.729     351.144
  H     -488.054     101.078     350.084

 3  4  5  6  7  8  9  10  11  12  23  26  30  31 0
 6-311+G(2d,p)
 ****
 33  35  36  37  38 0
 6-311+G(2d,p)
 ****
 1  2  13  14  15  16  17  18  19  20  21  22  24  25 0
 3-21G
 ****
 27  28  29  32  34  39  40  41  42  43  44  45  46  47  48  49 0
 3-21G
 ****


