%nproc=1
%NoSave
%Mem=1900MB
#P OB98/GEN NMR

erre ene a

0 1
  C     1526.454    2151.414    -891.750
  O     1527.341    2151.996    -892.680
  P     1528.734    2152.588    -892.120
  C     1529.774    2151.982    -894.480
  O     1529.579    2152.949    -893.460
  C     1531.035    2152.240    -895.240
  O     1532.154    2152.338    -894.300
  C     1531.387    2151.180    -896.210
  O     1530.640    2151.270    -897.430
  C     1532.902    2151.415    -896.440
  O     1533.141    2152.435    -897.460
  C     1533.319    2151.968    -895.060
  N     1534.139    2151.008    -894.300
  C     1535.444    2150.783    -894.800
  O     1535.848    2151.384    -895.830
  N     1536.234    2149.880    -894.180
  C     1535.780    2149.246    -893.120
  N     1536.631    2148.366    -892.550
  C     1534.438    2149.425    -892.610
  C     1533.695    2150.303    -893.240
  O     1529.494    2151.251    -891.600
  O     1528.609    2153.663    -891.080
  H     1532.676    2152.127    -898.250
  H     1530.120    2151.469    -890.880
  H     1534.087    2148.851    -891.700
  H     1532.677    2150.505    -892.910
  H     1533.910    2152.899    -895.180
  H     1533.436    2150.530    -896.750
  H     1531.269    2150.170    -895.780
  H     1530.962    2153.239    -895.730
  H     1537.568    2148.225    -892.940
  H     1528.914    2152.076    -895.210
  H     1536.394    2147.826    -891.690
  H     1529.752    2150.987    -894.040
  P     1530.203    2149.945    -898.190
  C     1528.345    2151.388    -899.090
  O     1529.276    2150.420    -899.390
  O     1529.158    2149.285    -897.180
  O     1531.297    2148.952    -898.550
  H     1528.881    2148.375    -897.420
  H     1527.875    2151.771    -900.000
  H     1528.811    2152.247    -898.590
  H     1527.518    2151.018    -898.460
  H     1525.579    2151.068    -892.260
  H     1526.175    2152.143    -891.019
  H     1526.935    2150.590    -891.266

 3  4  5  6  7  8  9  10  11  12  13  21  23  27  28  29  30  32 0
 6-311+G(2d,p)
 ****
 34  35 0
 6-311+G(2d,p)
 ****
 1  2  14  15  16  17  18  19  20  22  24  25  26 0
 3-21G
 ****
 31  33  36  37  38  39  40  41  42  43  44  45  46 0
 3-21G
 ****


