%nproc=1
%NoSave
%Mem=1900MB
#P OB98/GEN NMR

erre ene a

0 1
  C      -56.947    -468.928    -402.195
  O      -55.516    -468.951    -402.285
  P      -54.703    -470.011    -403.178
  C      -55.493    -468.860    -405.358
  O      -55.398    -470.076    -404.626
  C      -55.129    -469.082    -406.827
  O      -53.705    -469.314    -406.963
  C      -55.767    -470.295    -407.481
  O      -57.145    -470.104    -407.752
  C      -54.900    -470.455    -408.730
  O      -55.352    -469.604    -409.792
  C      -53.521    -469.987    -408.230
  N      -52.560    -471.069    -408.110
  C      -52.129    -471.665    -409.302
  O      -52.618    -471.321    -410.378
  N      -51.166    -472.641    -409.239
  C      -50.751    -473.061    -408.087
  N      -49.788    -474.019    -408.082
  C      -51.283    -472.560    -406.802
  C      -52.171    -471.572    -406.889
  O      -54.537    -471.349    -402.531
  O      -53.285    -469.326    -403.461
  H      -52.614    -470.016    -403.616
  H      -55.077    -468.696    -409.564
  H      -50.937    -472.969    -405.863
  H      -52.598    -471.134    -405.993
  H      -53.115    -469.220    -408.904
  H      -54.911    -471.480    -409.111
  H      -55.633    -471.171    -406.833
  H      -55.389    -468.168    -407.383
  H      -49.436    -474.336    -408.980
  H      -54.795    -468.136    -404.924
  H      -49.379    -474.400    -407.243
  H      -56.511    -468.464    -405.263
  P      -58.083    -471.404    -407.702
  C      -58.293    -471.707    -405.134
  O      -57.753    -472.191    -406.345
  O      -57.483    -472.348    -408.850
  O      -59.535    -471.130    -407.931
  H      -58.210    -472.796    -409.318
  H      -58.406    -472.544    -404.439
  H      -59.267    -471.236    -405.283
  H      -57.601    -470.980    -404.697
  H      -57.251    -468.136    -401.543
  H      -57.295    -469.863    -401.807
  H      -57.363    -468.768    -403.168

 3  4  5  6  7  8  9  10  11  12  13  24  27  28  29  30  32 0
 6-311+G(2d,p)
 ****
 34  35 0
 6-311+G(2d,p)
 ****
 1  2  14  15  16  17  18  19  20  21  22  23  25  26 0
 3-21G
 ****
 31  33  36  37  38  39  40  41  42  43  44  45  46 0
 3-21G
 ****


