%nproc=1
%NoSave
%Mem=1900MB
#P OB98/GEN NMR

erre ene a

0 1
  C      301.247    -141.200     274.637
  O      301.384    -139.926     275.272
  P      302.505    -139.833     276.423
  C      301.121    -140.488     278.515
  O      302.110    -140.883     277.579
  C      300.894    -141.556     279.585
  O      299.748    -141.234     280.421
  C      300.661    -142.963     279.014
  O      301.250    -143.894     279.931
  C      299.145    -143.100     279.085
  O      298.734    -144.461     279.008
  C      298.881    -142.399     280.419
  N      294.597    -143.536     282.828
  C      295.800    -144.214     282.791
  N      295.892    -145.329     283.551
  N      296.823    -143.828     282.078
  C      296.598    -142.668     281.400
  C      295.456    -141.903     281.374
  C      294.315    -142.364     282.146
  O      293.224    -141.803     282.218
  N      295.624    -140.779     280.590
  C      296.844    -140.918     280.102
  N      297.493    -142.006     280.607
  O      302.229    -138.405     277.088
  O      303.906    -139.947     275.908
  H      299.052    -144.907     279.823
  H      302.870    -137.746     276.752
  H      293.831    -143.891     283.388
  H      297.314    -140.237     279.409
  H      299.143    -143.025     281.276
  H      298.677    -142.553     278.257
  H      295.161    -145.657     284.166
  H      301.050    -143.117     278.003
  H      296.775    -145.816     283.568
  H      301.779    -141.575     280.243
  H      300.171    -140.303     277.999
  H      301.412    -139.528     278.964
  P      302.757    -144.360     279.648
  C      302.172    -146.840     279.145
  O      302.689    -145.614     278.656
  O      303.197    -145.024     281.047
  O      303.690    -143.265     279.257
  H      304.130    -144.791     281.235
  H      301.756    -147.409     278.308
  H      301.377    -146.672     279.886
  H      302.978    -147.416     279.611
  H      300.479    -141.147     273.894
  H      300.986    -141.937     275.368
  H      302.173    -141.469     274.174

 3  4  5  6  7  8  9  10  11  12  23  26  30  31 0
 6-311+G(2d,p)
 ****
 33  35  36  37  38 0
 6-311+G(2d,p)
 ****
 1  2  13  14  15  16  17  18  19  20  21  22  24  25 0
 3-21G
 ****
 27  28  29  32  34  39  40  41  42  43  44  45  46  47  48  49 0
 3-21G
 ****


