%nproc=1
%NoSave
%Mem=1900MB
#P OB98/GEN NMR

erre ene a

0 1
  C     -103.171    -163.281     113.528
  O     -103.397    -163.500     112.132
  P     -103.275    -162.229     111.155
  C     -101.183    -160.979     110.191
  O     -101.739    -162.183     110.703
  C      -99.888    -161.275     109.439
  O      -98.899    -161.847     110.330
  C     -100.044    -162.280     108.309
  O     -100.681    -161.700     107.180
  C      -98.589    -162.685     108.081
  O      -97.914    -161.700     107.282
  C      -98.027    -162.669     109.518
  N      -97.872    -164.004     110.085
  C      -97.017    -164.859     109.391
  O      -96.437    -164.540     108.353
  N      -96.863    -166.110     109.926
  C      -97.490    -166.587     111.042
  O      -97.304    -167.717     111.478
  C      -98.416    -165.656     111.701
  C      -98.566    -164.424     111.202
  O     -103.424    -161.027     112.195
  O     -104.279    -162.245     110.051
  H     -103.020    -161.218     113.059
  H      -96.969    -161.962     107.260
  H      -96.239    -166.742     109.445
  H      -98.952    -166.009     112.576
  H      -99.246    -163.720     111.673
  H      -97.046    -162.176     109.533
  H      -98.497    -163.646     107.563
  H     -100.620    -163.150     108.655
  H      -99.495    -160.325     109.052
  H     -100.973    -160.286     111.013
  H     -101.921    -160.501     109.538
  P     -102.147    -162.258     106.814
  C     -104.520    -161.990     107.877
  O     -103.152    -161.634     107.893
  O     -102.011    -163.792     107.243
  O     -102.522    -162.047     105.382
  H     -101.569    -163.909     108.099
  H     -104.950    -161.760     108.857
  H     -104.658    -163.052     107.674
  H     -105.041    -161.399     107.118
  H     -103.283    -164.204     114.057
  H     -103.881    -162.570     113.897
  H     -102.180    -162.905     113.674

 3  4  5  6  7  8  9  10  11  12  13  24  28  29  30  31  32 0
 6-311+G(2d,p)
 ****
 33  34 0
 6-311+G(2d,p)
 ****
 1  2  14  15  16  17  18  19  20  21  22  23  25  26  27 0
 3-21G
 ****
 35  36  37  38  39  40  41  42  43  44  45 0
 3-21G
 ****


