%nproc=1
%NoSave
%Mem=1900MB
#P OB98/GEN NMR

erre ene a

0 1
  C       79.694     123.877     -78.302
  O       80.763     124.028     -77.391
  H       79.277     124.864     -78.520
  H       78.909     123.257     -77.861
  H       80.039     123.430     -79.238
  P       81.682     122.757     -77.060
  C       82.788     120.860     -78.413
  O       81.891     121.964     -78.437
  C       82.271     119.750     -79.321
  O       80.982     119.291     -78.862
  C       82.066     120.177     -80.771
  O       83.303     120.269     -81.450
  C       81.144     119.072     -81.263
  O       81.890     117.886     -81.580
  C       80.246     118.845     -80.023
  N       78.954     119.524     -80.117
  C       78.080     119.061     -81.096
  O       78.370     118.160     -81.881
  N       76.864     119.688     -81.157
  C       76.478     120.761     -80.406
  O       75.393     121.321     -80.536
  C       77.454     121.228     -79.411
  C       78.627     120.599     -79.314
  O       81.235     121.915     -75.911
  O       83.126     123.397     -76.793
  H       82.507     118.128     -82.298
  H       83.285     123.460     -75.833
  H       76.223     119.374     -81.868
  H       77.185     122.081     -78.802
  H       79.361     120.933     -78.589
  H       80.058     117.773     -79.883
  H       80.598     119.350     -82.165
  H       81.525     121.130     -80.812
  H       82.970     118.905     -79.261
  H       82.860     120.488     -77.384
  H       83.775     121.200     -78.739
  P       83.456     121.187     -82.750
  C       83.370     123.701     -83.233
  O       82.940     122.660     -82.365
  O       82.864     120.629     -84.000
  O       85.037     121.386     -82.901
  H       85.369     120.847     -83.646
  H       82.975     124.635     -82.892
  H       83.019     123.506     -84.225
  H       84.439     123.745     -83.235

 6  7  8  9  10  11  12  13  14  15  16  26  31  32  33  34  35 0
 6-311+G(2d,p)
 ****
 36  37 0
 6-311+G(2d,p)
 ****
 1  2  3  4  5  17  18  19  20  21  22  23  24  25 0
 3-21G
 ****
 27  28  29  30  38  39  40  41  42  43  44  45 0
 3-21G
 ****


