%nproc=1
%NoSave
%Mem=1900MB
#P OB98/GEN NMR

erre ene a

0 1
  C      -92.711     -25.600    -283.996
  O      -91.616     -26.336    -283.437
  P      -90.613     -25.538    -282.466
  C      -91.737     -26.335    -280.241
  O      -90.596     -26.359    -281.082
  C      -91.548     -27.259    -279.030
  O      -91.043     -28.558    -279.477
  C      -90.570     -26.727    -277.976
  O      -91.095     -27.111    -276.689
  C      -89.289     -27.482    -278.271
  O      -88.423     -27.525    -277.144
  C      -89.863     -28.840    -278.702
  N      -88.895     -29.641    -279.459
  C      -88.865     -31.011    -279.198
  O      -89.545     -31.537    -278.318
  N      -87.992     -31.741    -279.955
  C      -87.100     -31.242    -280.863
  O      -86.337     -31.944    -281.516
  C      -87.096     -29.771    -281.012
  C      -87.983     -29.052    -280.315
  O      -91.462     -24.222    -282.143
  O      -89.273     -25.293    -283.084
  H      -92.420     -24.395    -282.050
  H      -88.862     -28.028    -276.423
  H      -87.973     -32.739    -279.801
  H      -86.365     -29.333    -281.682
  H      -87.992     -27.970    -280.387
  H      -90.170     -29.417    -277.824
  H      -88.752     -27.005    -279.102
  H      -90.456     -25.634    -278.007
  H      -92.531     -27.434    -278.575
  H      -92.619     -26.669    -280.802
  H      -91.935     -25.300    -279.920
  P      -91.755     -25.968    -275.763
  C      -94.217     -25.699    -276.633
  O      -93.331     -26.273    -275.693
  O      -91.671     -24.714    -276.764
  O      -91.052     -25.721    -274.464
  H      -91.986     -24.920    -277.662
  H      -95.179     -26.210    -276.565
  H      -93.835     -25.813    -277.654
  H      -94.358     -24.634    -276.411
  H      -93.295     -26.246    -284.618
  H      -92.333     -24.788    -284.581
  H      -93.323     -25.216    -283.207

 3  4  5  6  7  8  9  10  11  12  13  24  28  29  30  31  32 0
 6-311+G(2d,p)
 ****
 33  34 0
 6-311+G(2d,p)
 ****
 1  2  14  15  16  17  18  19  20  21  22  23  25  26  27 0
 3-21G
 ****
 35  36  37  38  39  40  41  42  43  44  45 0
 3-21G
 ****


