%nproc=1
%NoSave
%Mem=1900MB
#P OB98/GEN NMR

erre ene a

0 1
  C       82.892    -376.281    -388.107
  O       81.484    -376.197    -388.017
  H       83.203    -375.845    -389.064
  H       83.210    -377.323    -388.079
  H       83.368    -375.717    -387.300
  P       80.770    -376.635    -386.649
  C       79.218    -378.548    -387.419
  O       79.309    -377.186    -387.028
  C       77.872    -378.830    -388.095
  O       76.856    -378.975    -387.067
  C       77.414    -377.721    -389.050
  O       76.758    -378.307    -390.176
  C       76.416    -376.934    -388.225
  O       75.455    -376.256    -389.035
  C       75.803    -378.024    -387.350
  N       71.569    -377.322    -384.679
  C       71.773    -377.990    -385.864
  N       70.682    -378.544    -386.443
  N       72.936    -378.113    -386.448
  C       73.948    -377.531    -385.744
  C       73.875    -376.835    -384.554
  C       72.570    -376.695    -383.939
  O       72.330    -376.097    -382.897
  N       75.111    -376.378    -384.176
  C       75.929    -376.793    -385.127
  N       75.265    -377.479    -386.111
  O       80.783    -375.594    -385.571
  O       81.548    -377.957    -386.199
  H       74.842    -375.794    -388.421
  H       82.153    -377.772    -385.452
  H       70.650    -377.250    -384.283
  H       76.992    -376.620    -385.156
  H       74.982    -378.554    -387.851
  H       76.939    -376.186    -387.618
  H       69.756    -378.509    -386.039
  H       78.246    -377.102    -389.387
  H       70.804    -379.073    -387.301
  H       77.940    -379.794    -388.616
  H       79.318    -379.175    -386.525
  H       80.042    -378.780    -388.109
  P       77.469    -378.238    -391.616
  C       75.237    -377.650    -392.741
  O       76.371    -378.506    -392.754
  O       78.732    -379.037    -391.752
  O       77.769    -376.664    -391.787
  H       78.611    -376.555    -392.277
  H       74.577    -377.920    -393.539
  H       75.554    -376.636    -392.868
  H       74.726    -377.750    -391.806

 6  7  8  9  10  11  12  13  14  15  26  29  33  34 0
 6-311+G(2d,p)
 ****
 36  38  39  40  41 0
 6-311+G(2d,p)
 ****
 1  2  3  4  5  16  17  18  19  20  21  22  23  24  25 0
 3-21G
 ****
 27  28  30  31  32  35  37  42  43  44  45  46  47 0
 3-21G
 ****
 48  49 0
 3-21G
 ****


