%nproc=1
%NoSave
%Mem=1900MB
#P OB98/GEN NMR

erre ene a

0 1
  C      606.038     165.421     329.169
  O      605.398     165.803     330.378
  P      603.808     165.727     330.521
  C      603.479     163.281     331.424
  O      603.458     164.672     331.666
  C      603.268     162.536     332.753
  O      604.503     162.511     333.498
  C      602.208     163.224     333.617
  O      600.937     162.626     333.412
  C      602.757     163.027     335.017
  O      602.438     161.716     335.514
  C      604.279     163.159     334.782
  N      604.863     164.510     334.715
  C      604.925     165.295     335.864
  O      604.559     164.908     336.973
  N      605.430     166.560     335.698
  C      605.898     167.087     334.524
  O      606.111     168.279     334.338
  C      606.050     166.132     333.421
  C      605.521     164.919     333.559
  O      603.363     164.981     329.185
  O      603.112     167.039     330.692
  H      602.717     161.077     334.836
  H      603.052     165.627     328.510
  H      605.347     167.182     336.501
  H      606.548     166.467     332.519
  H      605.585     164.204     332.734
  H      604.851     162.602     335.539
  H      602.300     163.738     335.716
  H      602.176     164.300     333.401
  H      602.977     161.502     332.535
  H      604.430     162.994     330.968
  H      602.687     163.011     330.713
  P      599.648     163.554     333.228
  C      600.117     163.726     330.710
  O      599.187     163.330     331.711
  O      599.815     164.987     333.653
  O      598.529     162.806     334.094
  H      598.454     163.223     334.980
  H      599.763     163.354     329.743
  H      601.100     163.296     330.921
  H      600.183     164.811     330.679
  H      607.096     165.542     329.272
  H      605.684     166.036     328.368
  H      605.816     164.396     328.956

 3  4  5  6  7  8  9  10  11  12  13  23  28  29  30  31  32 0
 6-311+G(2d,p)
 ****
 33  34 0
 6-311+G(2d,p)
 ****
 1  2  14  15  16  17  18  19  20  21  22  24  25  26  27 0
 3-21G
 ****
 35  36  37  38  39  40  41  42  43  44  45 0
 3-21G
 ****


