%nproc=1
%NoSave
%Mem=1900MB
#P OB98/GEN NMR

erre ene a

0 1
  C      -28.081     386.590     -26.204
  O      -28.009     387.051     -27.539
  H      -27.720     387.382     -25.542
  H      -27.451     385.707     -26.067
  H      -29.114     386.356     -25.938
  P      -28.409     386.043     -28.718
  C      -27.109     384.471     -30.309
  O      -27.059     385.296     -29.150
  C      -26.040     384.891     -31.315
  O      -26.306     386.221     -31.803
  C      -24.629     384.935     -30.741
  O      -24.112     383.630     -30.587
  C      -23.931     385.796     -31.782
  O      -23.612     385.030     -32.953
  C      -25.030     386.840     -32.095
  N      -24.879     388.087     -31.350
  C      -23.775     388.877     -31.692
  O      -22.989     388.502     -32.561
  N      -23.585     390.060     -31.018
  C      -24.439     390.442     -30.123
  N      -24.194     391.624     -29.498
  C      -25.634     389.657     -29.760
  C      -25.784     388.497     -30.396
  O      -29.182     386.631     -29.857
  O      -29.237     384.892     -27.975
  H      -24.438     384.576     -33.215
  H      -30.194     385.080     -28.012
  H      -26.325     390.020     -29.014
  H      -26.637     387.858     -30.188
  H      -25.034     387.083     -33.166
  H      -22.998     386.219     -31.412
  H      -24.623     385.475     -29.787
  H      -26.095     384.207     -32.172
  H      -23.372     392.139     -29.796
  H      -28.106     384.594     -30.747
  H      -24.867     392.095     -28.910
  H      -26.979     383.417     -30.039
  P      -23.431     383.150     -29.215
  C      -21.033     382.485     -28.576
  O      -21.847     383.238     -29.462
  O      -23.916     381.844     -28.689
  O      -23.692     384.376     -28.219
  H      -24.629     384.364     -27.895
  H      -20.004     382.620     -28.835
  H      -21.287     381.448     -28.652
  H      -21.195     382.819     -27.572

 6  7  8  9  10  11  12  13  14  15  16  26  30  31  32  33  35 0
 6-311+G(2d,p)
 ****
 37  38 0
 6-311+G(2d,p)
 ****
 1  2  3  4  5  17  18  19  20  21  22  23  24  25 0
 3-21G
 ****
 27  28  29  34  36  39  40  41  42  43  44  45  46 0
 3-21G
 ****


