%nproc=1
%NoSave
%Mem=1900MB
#P OB98/GEN NMR

erre ene a

0 1
  C      -40.899    -142.997     174.682
  O      -41.887    -142.296     175.412
  H      -39.930    -142.534     174.868
  H      -41.121    -142.929     173.612
  H      -40.857    -144.045     174.988
  P      -43.332    -142.986     175.534
  C      -43.888    -142.735     173.013
  O      -43.670    -143.626     174.098
  C      -43.822    -143.492     171.684
  O      -44.923    -144.441     171.632
  C      -43.937    -142.587     170.451
  O      -43.056    -143.079     169.433
  C      -45.380    -142.761     170.009
  O      -45.566    -142.492     168.618
  C      -45.639    -144.208     170.406
  N      -49.467    -147.140     168.926
  C      -48.117    -147.210     168.621
  N      -47.731    -148.207     167.796
  N      -47.230    -146.377     169.091
  C      -47.754    -145.453     169.933
  C      -49.059    -145.276     170.311
  C      -50.043    -146.190     169.761
  O      -51.252    -146.168     169.970
  N      -49.199    -144.205     171.159
  C      -47.971    -143.733     171.292
  N      -47.057    -144.466     170.578
  O      -44.323    -141.731     175.628
  O      -43.506    -143.907     176.695
  H      -44.880    -142.994     168.128
  H      -44.763    -141.727     176.500
  H      -50.110    -147.806     168.524
  H      -47.696    -142.875     171.888
  H      -45.272    -144.921     169.652
  H      -46.023    -142.080     170.577
  H      -48.350    -148.913     167.438
  H      -43.696    -141.542     170.660
  H      -46.744    -148.300     167.590
  H      -42.899    -144.072     171.657
  H      -43.119    -141.957     173.031
  H      -44.872    -142.264     173.124
  P      -41.601    -142.408     169.341
  C      -41.593    -141.414     166.945
  O      -41.686    -141.151     168.340
  O      -40.753    -143.490     168.515
  O      -40.980    -142.124     170.672
  H      -40.125    -143.942     169.111
  H      -41.664    -140.494     166.403
  H      -42.390    -142.064     166.651
  H      -40.655    -141.882     166.732

 6  7  8  9  10  11  12  13  14  15  26  29  33  34 0
 6-311+G(2d,p)
 ****
 36  38  39  40  41 0
 6-311+G(2d,p)
 ****
 1  2  3  4  5  16  17  18  19  20  21  22  23  24  25 0
 3-21G
 ****
 27  28  30  31  32  35  37  42  43  44  45  46  47 0
 3-21G
 ****
 48  49 0
 3-21G
 ****


