%nproc=1
%NoSave
%Mem=1900MB
#P OB98/GEN NMR

erre ene a

0 1
  C      169.802     228.442      13.545
  O      170.483     229.678      13.475
  H      169.635     228.193      14.596
  H      170.406     227.654      13.092
  H      168.832     228.502      13.043
  P      170.673     230.374      12.044
  C      171.820     229.584       9.874
  O      171.046     229.211      11.008
  C      171.795     228.467       8.836
  O      172.626     227.368       9.265
  C      170.411     227.871       8.599
  O      169.617     228.736       7.809
  C      170.782     226.554       7.935
  O      171.081     226.748       6.544
  C      172.052     226.157       8.723
  N      171.792     225.181       9.781
  C      171.117     224.025       9.405
  O      170.713     223.826       8.259
  N      170.904     223.107      10.398
  C      171.217     223.269      11.717
  O      170.955     222.436      12.580
  C      171.898     224.524      12.064
  C      172.151     225.408      11.096
  O      171.583     231.557      12.013
  O      169.181     230.770      11.618
  H      171.796     227.413       6.503
  H      169.029     231.717      11.790
  H      170.405     222.269      10.148
  H      172.157     224.689      13.100
  H      172.647     226.342      11.333
  H      172.802     225.732       8.046
  H      169.978     225.816       7.983
  H      169.921     227.656       9.555
  H      172.214     228.860       7.901
  H      172.853     229.760      10.197
  H      171.415     230.511       9.457
  P      168.073     228.414       7.546
  C      166.663     227.781       5.504
  O      167.959     227.745       6.090
  O      167.137     229.553       7.782
  O      167.759     227.193       8.532
  H      167.225     227.507       9.288
  H      166.693     227.313       4.542
  H      166.348     228.798       5.396
  H      165.973     227.259       6.133

 6  7  8  9  10  11  12  13  14  15  16  26  31  32  33  34  35 0
 6-311+G(2d,p)
 ****
 36  37 0
 6-311+G(2d,p)
 ****
 1  2  3  4  5  17  18  19  20  21  22  23  24  25 0
 3-21G
 ****
 27  28  29  30  38  39  40  41  42  43  44  45 0
 3-21G
 ****


