%nproc=1
%NoSave
%Mem=1900MB
#P OB98/GEN NMR

erre ene a

0 1
  C      443.761      89.894     197.550
  O      444.812      90.387     198.393
  P      446.309      90.647     197.884
  C      445.829      92.687     196.357
  O      446.235      91.322     196.426
  C      446.893      93.531     195.652
  O      447.130      93.026     194.315
  C      446.520      94.997     195.440
  O      446.569      95.747     196.635
  C      447.551      95.410     194.389
  O      448.795      95.784     194.998
  C      447.727      94.118     193.568
  N      447.159      94.206     192.230
  C      448.008      94.665     191.217
  O      449.151      95.046     191.485
  N      447.532      94.694     189.932
  C      446.295      94.393     189.692
  N      445.888      94.424     188.391
  C      445.330      94.041     190.756
  C      445.824      93.967     191.985
  O      447.186      89.437     197.939
  O      446.884      91.818     198.814
  H      447.857      91.749     198.868
  H      449.279      96.326     194.343
  H      444.297      93.839     190.512
  H      445.188      93.694     192.819
  H      448.793      93.861     193.493
  H      447.212      96.270     193.797
  H      445.513      95.053     195.001
  H      447.826      93.456     196.227
  H      446.572      94.658     187.689
  H      445.692      93.059     197.378
  H      444.950      94.191     188.097
  H      444.865      92.749     195.835
  P      445.169      96.186     197.281
  C      445.150      94.747     199.446
  O      444.627      94.953     198.151
  O      444.174      96.235     196.022
  O      445.197      97.496     198.003
  H      443.566      96.993     196.117
  H      444.397      94.241     200.050
  H      445.421      95.691     199.928
  H      446.037      94.114     199.378
  H      442.859      89.805     198.119
  H      444.034      88.935     197.163
  H      443.605      90.574     196.739

 3  4  5  6  7  8  9  10  11  12  13  24  27  28  29  30  32 0
 6-311+G(2d,p)
 ****
 34  35 0
 6-311+G(2d,p)
 ****
 1  2  14  15  16  17  18  19  20  21  22  23  25  26 0
 3-21G
 ****
 31  33  36  37  38  39  40  41  42  43  44  45  46 0
 3-21G
 ****


