%nproc=1
%NoSave
%Mem=1900MB
#P OB98/GEN NMR

erre ene a

0 1
  C      245.715     -20.119     126.869
  O      245.033     -19.624     128.029
  P      245.491     -18.210     128.628
  C      247.111     -17.376     130.487
  O      246.682     -18.458     129.674
  C      247.277     -17.829     131.941
  O      246.009     -18.159     132.547
  C      248.134     -19.075     132.100
  O      249.520     -18.761     132.080
  C      247.721     -19.546     133.485
  O      248.407     -18.774     134.489
  C      246.222     -19.223     133.503
  N      244.010     -23.518     135.209
  C      244.828     -22.626     135.809
  N      245.392     -21.516     135.283
  C      245.020     -21.358     134.003
  C      244.195     -22.184     133.258
  C      243.676     -23.314     133.911
  N      242.840     -24.217     133.296
  N      244.052     -21.705     131.974
  C      244.768     -20.599     131.946
  N      245.378     -20.352     133.146
  O      244.261     -17.796     129.563
  O      245.762     -17.172     127.588
  H      248.044     -19.042     135.354
  H      244.144     -16.829     129.548
  H      245.062     -22.828     136.850
  H      244.870     -19.946     131.089
  H      245.885     -18.862     134.482
  H      247.971     -20.595     133.666
  H      247.870     -19.833     131.349
  H      247.723     -17.001     132.506
  H      246.391     -16.554     130.430
  H      242.484     -24.988     133.839
  H      242.570     -24.056     132.337
  H      248.055     -16.985     130.091
  P      250.321     -19.054     130.721
  C      250.474     -21.136     129.173
  O      250.154     -20.626     130.452
  O      251.850     -18.894     131.164
  O      249.966     -18.152     129.587
  H      252.387     -18.582     130.409
  H      250.600     -22.218     129.248
  H      251.402     -20.700     128.793
  H      249.656     -20.924     128.477
  H      245.302     -21.065     126.589
  H      246.755     -20.236     127.090
  H      245.597     -19.425     126.063

 3  4  5  6  7  8  9  10  11  12  22  25  29  30  31  32 0
 6-311+G(2d,p)
 ****
 33  36  37 0
 6-311+G(2d,p)
 ****
 1  2  13  14  15  16  17  18  19  20  21  23  24  26 0
 3-21G
 ****
 27  28  34  35  38  39  40  41  42  43  44  45  46  47  48 0
 3-21G
 ****


