%nproc=1
%NoSave
%Mem=1900MB
#P OB98/GEN NMR

erre ene a

0 1
  C     -298.490     190.579    -172.053
  O     -299.565     190.020    -171.327
  H     -298.397     190.045    -173.002
  H     -297.556     190.468    -171.498
  H     -298.676     191.635    -172.264
  P     -299.912     190.629    -169.884
  C     -302.458     190.472    -170.338
  O     -301.367     190.032    -169.546
  C     -303.576     189.435    -170.320
  O     -303.270     188.315    -171.177
  C     -303.845     188.807    -168.956
  O     -304.508     189.670    -168.048
  C     -304.709     187.631    -169.374
  O     -306.034     188.094    -169.690
  C     -303.963     187.154    -170.641
  N     -303.017     186.075    -170.364
  C     -303.549     184.898    -169.820
  O     -304.753     184.803    -169.586
  N     -302.698     183.862    -169.520
  C     -301.423     183.998    -169.722
  N     -300.625     182.943    -169.400
  C     -300.818     185.225    -170.275
  C     -301.662     186.210    -170.571
  O     -299.781     192.112    -169.750
  O     -298.985     189.810    -168.868
  H     -306.490     187.362    -170.142
  H     -299.154     190.157    -167.959
  H     -299.748     185.298    -170.396
  H     -301.293     187.148    -170.975
  H     -304.672     186.816    -171.408
  H     -304.808     186.872    -168.597
  H     -302.919     188.417    -168.516
  H     -304.477     189.914    -170.724
  H     -301.067     182.115    -169.022
  H     -302.094     190.638    -171.357
  H     -299.615     182.988    -169.452
  H     -302.852     191.412    -169.944
  P     -304.310     189.369    -166.481
  C     -304.612     191.913    -165.976
  O     -305.010     190.579    -165.700
  O     -302.747     189.611    -166.261
  O     -304.752     188.011    -166.034
  H     -302.261     188.765    -166.265
  H     -305.179     192.587    -165.369
  H     -304.786     192.131    -167.009
  H     -303.571     192.027    -165.758

 6  7  8  9  10  11  12  13  14  15  16  26  30  31  32  33  35 0
 6-311+G(2d,p)
 ****
 37  38 0
 6-311+G(2d,p)
 ****
 1  2  3  4  5  17  18  19  20  21  22  23  24  25 0
 3-21G
 ****
 27  28  29  34  36  39  40  41  42  43  44  45  46 0
 3-21G
 ****


