%nproc=1
%NoSave
%Mem=1900MB
#P OB98/GEN NMR

erre ene a

0 1
  C       -3.332    -134.566      67.089
  O       -4.582    -135.226      67.357
  P       -4.971    -136.534      66.509
  C       -6.104    -137.119      64.232
  O       -5.792    -136.123      65.192
  C       -6.712    -136.501      62.964
  O       -7.970    -135.838      63.283
  C       -5.819    -135.459      62.275
  O       -6.074    -135.551      60.867
  C       -6.363    -134.150      62.819
  O       -6.021    -133.026      62.021
  C       -7.862    -134.468      62.843
  N       -8.650    -133.583      63.700
  C       -8.823    -132.264      63.292
  O       -8.307    -131.775      62.290
  N       -9.605    -131.487      64.106
  C      -10.182    -131.874      65.280
  O      -10.847    -131.120      65.980
  C       -9.942    -133.268      65.676
  C       -9.201    -134.043      64.882
  O       -6.109    -137.197      67.422
  O       -3.860    -137.507      66.284
  H       -6.461    -133.138      61.159
  H       -5.948    -138.155      67.506
  H       -9.753    -130.532      63.819
  H      -10.387    -133.618      66.598
  H       -9.021    -135.080      65.148
  H       -8.260    -134.433      61.823
  H       -5.963    -133.981      63.824
  H       -4.755    -135.604      62.479
  H       -6.953    -137.316      62.270
  H       -6.822    -137.822      64.663
  H       -5.192    -137.671      63.981
  P       -4.820    -135.690      59.870
  C       -3.540    -134.043      58.292
  O       -4.486    -134.224      59.321
  O       -5.529    -136.400      58.617
  O       -3.675    -136.475      60.422
  H       -6.377    -135.990      58.385
  H       -3.636    -134.812      57.520
  H       -2.531    -134.073      58.711
  H       -3.702    -133.065      57.832
  H       -3.229    -133.720      67.736
  H       -3.312    -134.240      66.070
  H       -2.525    -135.247      67.262

 3  4  5  6  7  8  9  10  11  12  13  23  28  29  30  31  32 0
 6-311+G(2d,p)
 ****
 33  34 0
 6-311+G(2d,p)
 ****
 1  2  14  15  16  17  18  19  20  21  22  24  25  26 0
 3-21G
 ****
 27  35  36  37  38  39  40  41  42  43  44  45 0
 3-21G
 ****


