%nproc=1
%NoSave
%Mem=1900MB
#P OB98/GEN NMR

erre ene a

0 1
  C       25.112     445.707      79.538
  O       25.290     445.150      78.247
  P       24.175     445.327      77.116
  C       23.520     442.793      77.327
  O       23.115     444.144      77.263
  C       22.670     442.072      78.385
  O       22.618     442.852      79.597
  C       21.241     441.854      77.902
  O       21.097     440.567      77.323
  C       20.431     442.039      79.169
  O       20.440     440.835      79.956
  C       21.227     443.154      79.888
  N       20.975     444.556      79.494
  C       21.029     445.559      80.456
  O       21.309     445.362      81.637
  N       20.721     446.824      80.015
  C       20.420     447.165      78.728
  O       19.916     448.234      78.397
  C       20.648     446.120      77.726
  C       20.889     444.881      78.149
  O       24.960     444.956      75.772
  O       23.545     446.681      77.042
  H       19.912     441.013      80.759
  H       25.248     445.763      75.309
  H       20.622     447.532      80.735
  H       20.558     446.384      76.683
  H       21.019     444.081      77.423
  H       21.095     443.097      80.974
  H       19.385     442.248      78.945
  H       20.956     442.636      77.188
  H       23.144     441.109      78.620
  H       24.583     442.733      77.585
  H       23.394     442.317      76.353
  P       21.004     440.419      75.732
  C       18.756     439.192      75.877
  O       19.433     440.342      75.409
  O       21.834     439.334      75.136
  O       21.443     441.869      75.202
  H       22.388     441.853      74.946
  H       17.680     439.341      75.752
  H       18.972     439.019      76.935
  H       19.060     438.319      75.288
  H       25.963     445.480      80.145
  H       24.233     445.293      79.987
  H       25.005     446.769      79.457

 3  4  5  6  7  8  9  10  11  12  13  23  28  29  30  31  32 0
 6-311+G(2d,p)
 ****
 33  34 0
 6-311+G(2d,p)
 ****
 1  2  14  15  16  17  18  19  20  21  22  24  25  26  27 0
 3-21G
 ****
 35  36  37  38  39  40  41  42  43  44  45 0
 3-21G
 ****


