%nproc=1
%NoSave
%Mem=1900MB
#P OB98/GEN NMR

erre ene a

0 1
  C      558.873     349.356    -118.371
  O      559.636     349.537    -117.195
  H      557.940     349.913    -118.271
  H      558.635     348.295    -118.510
  H      559.415     349.732    -119.244
  P      561.061     348.817    -117.081
  C      562.999     349.213    -115.392
  O      561.923     349.787    -116.128
  C      563.824     350.300    -114.724
  O      564.469     351.148    -115.704
  C      563.028     351.268    -113.838
  O      562.612     350.699    -112.611
  C      564.057     352.366    -113.658
  O      565.059     351.938    -112.716
  C      564.644     352.459    -115.090
  N      564.005     353.503    -115.897
  C      564.016     354.801    -115.371
  O      564.537     355.029    -114.269
  N      563.407     355.803    -116.078
  C      562.815     355.532    -117.201
  N      562.223     356.573    -117.858
  C      562.764     354.185    -117.780
  C      563.370     353.218    -117.096
  O      561.715     348.448    -118.373
  O      560.802     347.562    -116.111
  H      564.580     351.626    -111.921
  H      561.660     347.072    -116.017
  H      562.234     354.007    -118.710
  H      563.372     352.200    -117.449
  H      565.728     352.651    -115.051
  H      563.634     353.289    -113.283
  H      562.169     351.678    -114.390
  H      564.617     349.806    -114.150
  H      562.276     357.490    -117.431
  H      563.606     348.621    -116.090
  H      561.675     356.436    -118.699
  H      562.600     348.550    -114.617
  P      561.397     351.430    -111.849
  C      559.166     350.570    -110.796
  O      560.241     350.328    -111.686
  O      560.827     352.437    -112.958
  O      561.770     352.123    -110.574
  H      561.171     353.338    -112.819
  H      558.494     349.737    -110.813
  H      558.645     351.455    -111.098
  H      559.546     350.701    -109.804

 6  7  8  9  10  11  12  13  14  15  16  26  30  31  32  33  35 0
 6-311+G(2d,p)
 ****
 37  38 0
 6-311+G(2d,p)
 ****
 1  2  3  4  5  17  18  19  20  21  22  23  24  25 0
 3-21G
 ****
 27  28  29  34  36  39  40  41  42  43  44  45  46 0
 3-21G
 ****


