%nproc=1
%NoSave
%Mem=1900MB
#P OB98/GEN NMR

erre ene a

0 1
  C      152.239     119.858     143.553
  O      153.638     120.020     143.711
  P      154.546     118.705     143.819
  C      154.717     118.370     146.388
  O      155.369     118.783     145.196
  C      154.980     119.363     147.523
  O      156.342     119.205     148.002
  C      154.809     120.829     147.109
  O      154.302     121.580     148.220
  C      156.231     121.291     146.860
  O      156.349     122.708     146.984
  C      156.982     120.495     147.926
  N      161.648     121.953     149.212
  C      160.465     122.084     149.910
  N      160.523     122.776     151.070
  N      159.328     121.579     149.512
  C      159.417     120.918     148.332
  C      160.536     120.708     147.555
  C      161.785     121.284     148.002
  O      162.861     121.227     147.416
  N      160.241     119.960     146.444
  C      158.940     119.754     146.521
  N      158.392     120.346     147.629
  O      155.664     118.950     142.700
  O      153.821     117.424     143.576
  H      155.652     123.100     146.425
  H      155.486     118.388     141.923
  H      162.497     122.370     149.554
  H      158.350     119.209     145.795
  H      156.895     120.964     148.914
  H      156.545     121.007     145.849
  H      161.354     123.247     151.397
  H      154.160     120.982     146.239
  H      159.664     122.924     151.578
  H      154.315     119.119     148.362
  H      155.094     117.388     146.679
  H      153.641     118.282     146.207
  P      153.036     122.520     147.915
  C      154.348     124.539     148.902
  O      153.165     123.765     148.910
  O      151.807     121.682     148.507
  O      152.855     122.852     146.471
  H      150.980     121.927     148.050
  H      154.105     125.557     148.591
  H      155.106     124.131     148.226
  H      154.761     124.567     149.915
  H      151.773     120.819     143.496
  H      151.846     119.319     144.390
  H      152.042     119.313     142.654

 3  4  5  6  7  8  9  10  11  12  23  26  30  31 0
 6-311+G(2d,p)
 ****
 33  35  36  37  38 0
 6-311+G(2d,p)
 ****
 1  2  13  14  15  16  17  18  19  20  21  22  24  25 0
 3-21G
 ****
 27  28  29  32  34  39  40  41  42  43  44  45  46  47  48  49 0
 3-21G
 ****


