%nproc=1
%NoSave
%Mem=1900MB
#P OB98/GEN NMR

erre ene a

0 1
  C     -295.368     182.124     286.301
  O     -295.553     182.615     287.634
  P     -295.685     184.192     287.912
  C     -293.469     184.632     289.103
  O     -294.882     184.555     289.261
  C     -292.698     184.443     290.424
  O     -293.039     185.492     291.374
  C     -292.940     183.104     291.130
  O     -291.710     182.767     291.779
  C     -294.017     183.469     292.145
  O     -294.109     182.502     293.201
  C     -293.561     184.867     292.566
  N     -294.641     185.638     293.160
  C     -294.856     185.503     294.536
  O     -294.179     184.698     295.184
  N     -295.855     186.227     295.126
  C     -296.641     186.952     294.405
  N     -297.636     187.638     295.046
  C     -296.511     187.076     292.926
  C     -295.493     186.410     292.384
  O     -297.088     184.723     287.865
  O     -294.788     184.860     286.755
  H     -294.295     181.634     292.797
  H     -295.155     185.733     286.532
  H     -297.206     187.685     292.363
  H     -295.310     186.437     291.323
  H     -292.744     184.811     293.294
  H     -294.991     183.515     291.647
  H     -293.249     182.307     290.445
  H     -291.626     184.563     290.205
  H     -297.711     187.505     296.054
  H     -293.213     185.610     288.677
  H     -298.361     188.145     294.567
  H     -293.136     183.878     288.380
  P     -290.680     181.712     291.165
  C     -290.979     180.200     293.211
  O     -290.064     180.896     292.396
  O     -289.663     182.287     290.229
  O     -291.600     180.626     290.426
  H     -291.060     180.115     289.798
  H     -290.435     179.521     293.872
  H     -291.678     179.617     292.603
  H     -291.555     180.917     293.821
  H     -295.303     181.056     286.320
  H     -294.465     182.529     285.894
  H     -296.198     182.420     285.694

 3  4  5  6  7  8  9  10  11  12  13  23  27  28  29  30  32 0
 6-311+G(2d,p)
 ****
 34  35 0
 6-311+G(2d,p)
 ****
 1  2  14  15  16  17  18  19  20  21  22  24  25  26 0
 3-21G
 ****
 31  33  36  37  38  39  40  41  42  43  44  45  46 0
 3-21G
 ****


