%nproc=1
%NoSave
%Mem=1900MB
#P OB98/GEN NMR

erre ene a

0 1
  C     -171.278     542.017    -160.577
  O     -171.957     543.197    -160.942
  H     -170.620     542.239    -159.730
  H     -170.661     541.656    -161.409
  H     -171.985     541.242    -160.271
  P     -172.955     543.092    -162.199
  C     -175.360     543.987    -162.465
  O     -174.059     544.233    -161.928
  C     -176.433     544.397    -161.452
  O     -176.270     543.582    -160.254
  C     -176.356     545.860    -161.027
  O     -177.683     546.379    -160.873
  C     -175.664     545.816    -159.666
  O     -175.977     546.933    -158.854
  C     -176.145     544.470    -159.124
  N     -175.177     544.055    -154.130
  C     -176.243     544.545    -154.809
  N     -176.427     544.594    -156.148
  C     -175.392     544.038    -156.792
  C     -174.233     543.497    -156.239
  C     -174.143     543.528    -154.826
  N     -173.061     543.050    -154.137
  N     -173.381     543.055    -157.232
  C     -174.002     543.312    -158.366
  N     -175.218     543.922    -158.151
  O     -173.490     541.726    -162.485
  O     -172.069     543.740    -163.370
  H     -176.940     547.092    -158.910
  H     -171.611     544.541    -163.064
  H     -177.053     544.945    -154.193
  H     -173.624     543.094    -159.365
  H     -177.136     544.546    -158.641
  H     -174.568     545.792    -159.817
  H     -175.805     546.477    -161.743
  H     -177.419     544.149    -161.866
  H     -175.472     542.927    -162.720
  H     -173.081     543.093    -153.127
  H     -172.278     542.637    -154.642
  H     -175.461     544.583    -163.382
  P     -178.271     547.336    -162.016
  C     -180.773     547.787    -162.525
  O     -179.729     547.842    -161.560
  O     -178.186     546.809    -163.405
  O     -177.390     548.655    -161.857
  H     -177.213     549.039    -162.736
  H     -181.680     548.151    -162.090
  H     -180.911     546.775    -162.844
  H     -180.513     548.394    -163.367

 6  7  8  9  10  11  12  13  14  15  25  28  32  33  34  35 0
 6-311+G(2d,p)
 ****
 36  39  40 0
 6-311+G(2d,p)
 ****
 1  2  3  4  5  16  17  18  19  20  21  22  23  24 0
 3-21G
 ****
 26  27  29  30  31  37  38  41  42  43  44  45  46  47 0
 3-21G
 ****
 48 0
 3-21G
 ****


