%nproc=1
%NoSave
%Mem=1900MB
#P OB98/GEN NMR

erre ene a

0 1
  C       51.119     337.979     561.038
  O       52.415     337.566     560.657
  H       50.463     337.105     561.054
  H       50.728     338.693     560.308
  H       51.125     338.429     562.034
  P       53.637     338.588     560.823
  C       53.630     340.137     558.756
  O       53.183     339.942     560.091
  C       53.517     341.614     558.375
  O       54.419     342.378     559.234
  C       53.912     341.901     556.910
  O       53.103     342.976     556.423
  C       55.347     342.361     557.069
  O       55.792     343.096     555.957
  C       55.257     343.162     558.365
  N       56.577     343.406     558.935
  C       57.204     344.600     558.589
  O       56.708     345.431     557.830
  N       58.465     344.779     559.085
  C       59.188     343.857     559.784
  O       60.345     344.044     560.134
  C       58.494     342.590     560.076
  C       57.240     342.426     559.653
  O       54.977     338.077     560.409
  O       53.597     339.010     562.367
  H       55.308     343.941     555.901
  H       54.464     339.355     562.649
  H       58.926     345.645     558.849
  H       59.047     341.833     560.617
  H       56.707     341.504     559.835
  H       54.757     344.124     558.198
  H       56.008     341.495     557.185
  H       53.808     341.029     556.261
  H       52.502     341.961     558.588
  H       53.006     339.531     558.096
  H       54.671     339.803     558.669
  P       51.908     342.730     555.378
  C       53.137     343.120     553.152
  O       52.486     342.165     553.988
  O       50.985     343.895     555.217
  O       51.109     341.483     555.981
  H       50.151     341.669     555.950
  H       53.480     342.638     552.260
  H       53.971     343.541     553.674
  H       52.448     343.897     552.895

 6  7  8  9  10  11  12  13  14  15  16  26  31  32  33  34  35 0
 6-311+G(2d,p)
 ****
 36  37 0
 6-311+G(2d,p)
 ****
 1  2  3  4  5  17  18  19  20  21  22  23  24  25 0
 3-21G
 ****
 27  28  29  30  38  39  40  41  42  43  44  45 0
 3-21G
 ****


