%nproc=1
%NoSave
%Mem=1900MB
#P OB98/GEN NMR

erre ene a

0 1
  C     -336.485    -149.968     495.952
  O     -336.363    -151.247     496.543
  P     -337.256    -152.473     496.028
  C     -338.950    -151.873     497.888
  O     -338.757    -152.132     496.491
  C     -340.268    -151.140     498.127
  O     -340.241    -149.831     497.503
  C     -341.489    -151.837     497.554
  O     -341.873    -152.924     498.371
  C     -342.496    -150.693     497.498
  O     -343.114    -150.493     498.778
  C     -341.587    -149.490     497.139
  N     -341.692    -149.122     495.730
  C     -342.701    -148.218     495.400
  O     -343.461    -147.789     496.271
  N     -342.859    -147.838     494.082
  C     -342.082    -148.349     493.174
  N     -342.287    -147.947     491.886
  C     -341.025    -149.335     493.469
  C     -340.888    -149.682     494.756
  O     -336.759    -153.831     496.404
  O     -337.309    -152.242     494.434
  H     -342.379    -150.380     499.419
  H     -336.454    -152.470     494.001
  H     -340.415    -149.748     492.677
  H     -340.145    -150.401     495.067
  H     -341.860    -148.613     497.740
  H     -343.296    -150.870     496.771
  H     -341.274    -152.181     496.526
  H     -340.389    -151.001     499.213
  H     -343.040    -147.300     491.725
  H     -338.114    -151.258     498.235
  H     -341.772    -148.309     491.100
  H     -338.932    -152.828     498.429
  P     -342.210    -154.346     497.714
  C     -344.764    -154.070     497.781
  O     -343.617    -154.221     496.951
  O     -342.083    -155.524     498.622
  O     -341.163    -154.457     496.498
  H     -340.776    -155.360     496.483
  H     -345.581    -153.669     497.184
  H     -344.552    -153.376     498.619
  H     -345.062    -155.036     498.184
  H     -335.810    -149.289     496.430
  H     -337.489    -149.615     496.069
  H     -336.248    -150.032     494.910

 3  4  5  6  7  8  9  10  11  12  13  23  27  28  29  30  32 0
 6-311+G(2d,p)
 ****
 34  35 0
 6-311+G(2d,p)
 ****
 1  2  14  15  16  17  18  19  20  21  22  24  25  26 0
 3-21G
 ****
 31  33  36  37  38  39  40  41  42  43  44  45  46 0
 3-21G
 ****


