%nproc=1
%NoSave
%Mem=1900MB
#P OB98/GEN NMR

erre ene a

0 1
  C     -938.013    -890.220    -892.950
  O     -938.080    -890.930    -894.180
  H     -937.730    -890.950    -892.200
  H     -939.023    -889.820    -892.710
  H     -937.283    -889.440    -892.970
  P     -938.158    -890.080    -895.560
  C     -936.156    -890.730    -897.010
  O     -936.707    -889.800    -896.060
  C     -934.912    -891.450    -896.510
  O     -935.316    -892.380    -895.320
  C     -934.238    -892.400    -897.620
  O     -932.798    -892.580    -897.410
  C     -934.990    -893.760    -897.390
  O     -934.234    -894.900    -897.860
  C     -935.147    -893.730    -895.800
  N     -936.802    -898.380    -894.580
  C     -935.602    -898.010    -895.180
  N     -934.719    -899.030    -895.520
  N     -935.278    -896.770    -895.490
  C     -936.269    -895.940    -895.150
  C     -937.562    -896.170    -894.540
  C     -937.882    -897.550    -894.230
  O     -938.863    -897.890    -893.700
  N     -938.296    -894.970    -894.400
  C     -937.499    -894.060    -894.940
  N     -936.268    -894.570    -895.370
  O     -938.633    -888.600    -895.050
  O     -939.141    -890.620    -896.600
  H     -934.822    -895.690    -897.760
  H     -939.071    -888.150    -895.780
  H     -936.986    -899.350    -894.330
  H     -937.812    -893.000    -894.960
  H     -934.197    -894.160    -895.400
  H     -935.966    -893.740    -897.930
  H     -935.035    -900.000    -895.460
  H     -934.442    -892.060    -898.650
  H     -934.018    -898.810    -896.220
  H     -934.170    -890.690    -896.090
  H     -935.880    -890.120    -897.970
  H     -936.944    -891.500    -897.360
  P     -931.770    -891.590    -898.250
  C     -930.019    -891.120    -896.330
  O     -931.006    -890.590    -897.250
  O     -932.792    -890.600    -899.110
  O     -930.961    -892.390    -899.150
  H     -932.720    -890.820    -900.000
  H     -929.613    -890.322    -895.744
  H     -929.234    -891.592    -896.882
  H     -930.482    -891.837    -895.684

 6  7  8  9  10  11  12  13  14  15  26  29  33  34 0
 6-311+G(2d,p)
 ****
 36  38  39  40  41 0
 6-311+G(2d,p)
 ****
 1  2  3  4  5  16  17  18  19  20  21  22  23  24  25 0
 3-21G
 ****
 27  28  30  31  32  35  37  42  43  44  45  46  47 0
 3-21G
 ****
 48  49 0
 3-21G
 ****


