%nproc=1
%NoSave
%Mem=1900MB
#P OB98/GEN NMR

erre ene a

0 1
  C     -202.721     -85.809     -22.671
  O     -203.116     -86.684     -21.632
  H     -202.618     -84.803     -22.259
  H     -203.485     -85.791     -23.450
  H     -201.762     -86.118     -23.092
  P     -203.163     -88.265     -21.919
  C     -205.094     -88.149     -23.639
  O     -203.720     -88.439     -23.415
  C     -205.572     -88.774     -24.947
  O     -205.425     -90.221     -24.860
  C     -207.065     -88.492     -25.274
  O     -207.188     -88.476     -26.711
  C     -207.728     -89.722     -24.676
  O     -209.066     -89.864     -25.066
  C     -206.730     -90.795     -25.137
  N     -206.862     -92.101     -24.494
  C     -205.888     -93.052     -24.786
  O     -204.927     -92.879     -25.527
  N     -206.055     -94.276     -24.173
  C     -207.069     -94.609     -23.318
  O     -207.150     -95.708     -22.775
  C     -208.067     -93.562     -23.068
  C     -207.917     -92.371     -23.650
  O     -203.840     -89.100     -20.887
  O     -201.614     -88.658     -22.075
  H     -201.303     -89.083     -21.248
  H     -209.408     -90.719     -24.727
  H     -205.360     -94.976     -24.362
  H     -208.886     -93.802     -22.405
  H     -208.635     -91.577     -23.473
  H     -206.794     -90.923     -26.230
  H     -207.737     -89.644     -23.582
  H     -207.416     -87.542     -24.872
  H     -204.925     -88.442     -25.768
  H     -205.213     -87.058     -23.682
  H     -205.690     -88.535     -22.795
  P     -207.088     -87.143     -27.593
  C     -209.422     -86.264     -26.894
  O     -208.022     -86.022     -26.914
  O     -207.360     -87.350     -29.052
  O     -205.591     -86.598     -27.370
  H     -205.319     -86.063     -28.134
  H     -209.919     -85.445     -26.417
  H     -209.620     -87.165     -26.353
  H     -209.781     -86.364     -27.897

 6  7  8  9  10  11  12  13  14  15  16  27  31  32  33  34  35 0
 6-311+G(2d,p)
 ****
 36  37 0
 6-311+G(2d,p)
 ****
 1  2  3  4  5  17  18  19  20  21  22  23  24  25 0
 3-21G
 ****
 26  28  29  30  38  39  40  41  42  43  44  45 0
 3-21G
 ****


