%nproc=1
%NoSave
%Mem=1900MB
#P OB98/GEN NMR

erre ene a

0 1
  C      117.354     -13.804    -361.207
  O      117.462     -15.098    -361.811
  P      116.970     -15.254    -363.332
  C      114.965     -16.831    -362.844
  O      115.394     -15.567    -363.336
  C      113.433     -16.945    -362.872
  O      113.017     -18.314    -362.564
  C      112.733     -16.034    -361.858
  O      111.454     -15.675    -362.392
  C      112.524     -16.951    -360.670
  O      111.521     -16.452    -359.786
  C      112.179     -18.257    -361.385
  N      110.010     -21.399    -358.081
  C      109.498     -20.278    -358.718
  N      108.205     -19.972    -358.456
  N      110.191     -19.527    -359.533
  C      111.461     -19.980    -359.728
  C      112.079     -21.058    -359.145
  C      111.313     -21.866    -358.230
  O      111.714     -22.862    -357.628
  N      113.381     -21.180    -359.575
  C      113.549     -20.159    -360.403
  N      112.397     -19.420    -360.552
  O      117.631     -16.643    -363.782
  O      117.406     -14.135    -364.223
  H      110.669     -16.460    -360.275
  H      118.359     -16.476    -364.406
  H      109.432     -21.934    -357.454
  H      114.462     -19.914    -360.912
  H      111.133     -18.294    -361.712
  H      113.464     -17.050    -360.108
  H      107.606     -20.538    -357.879
  H      113.286     -15.124    -361.603
  H      107.797     -19.183    -358.942
  H      113.082     -16.721    -363.881
  H      115.327     -16.981    -361.824
  H      115.438     -17.619    -363.443
  P      111.348     -14.261    -363.145
  C      110.383     -12.887    -361.160
  O      111.491     -13.137    -362.011
  O      109.806     -14.175    -363.571
  O      112.266     -14.112    -364.314
  H      109.706     -13.588    -364.342
  H      110.569     -13.350    -360.185
  H      109.449     -13.280    -361.579
  H      110.281     -11.807    -361.029
  H      117.716     -13.849    -360.201
  H      116.329     -13.496    -361.204
  H      117.936     -13.100    -361.765

 3  4  5  6  7  8  9  10  11  12  23  26  30  31 0
 6-311+G(2d,p)
 ****
 33  35  36  37  38 0
 6-311+G(2d,p)
 ****
 1  2  13  14  15  16  17  18  19  20  21  22  24  25 0
 3-21G
 ****
 27  28  29  32  34  39  40  41  42  43  44  45  46  47  48  49 0
 3-21G
 ****


