%nproc=1
%NoSave
%Mem=1900MB
#P OB98/GEN NMR

erre ene a

0 1
  C      202.652    -169.889     195.566
  O      201.291    -169.547     195.404
  H      203.175    -169.042     196.018
  H      203.105    -170.098     194.593
  H      202.762    -170.757     196.222
  P      200.260    -170.677     194.929
  C      197.917    -170.691     193.841
  O      199.075    -169.929     194.155
  C      196.823    -169.794     193.243
  O      196.149    -169.094     194.336
  C      197.349    -168.718     192.268
  O      196.305    -168.476     191.309
  C      197.520    -167.538     193.208
  O      197.740    -166.333     192.527
  C      196.233    -167.679     194.026
  N      196.176    -166.890     195.251
  C      195.113    -166.001     195.391
  O      194.215    -165.838     194.566
  N      195.103    -165.268     196.553
  C      196.020    -165.348     197.563
  O      195.940    -164.687     198.594
  C      197.120    -166.296     197.349
  C      197.144    -167.012     196.223
  O      199.817    -171.638     195.983
  O      201.040    -171.424     193.743
  H      201.408    -172.267     194.073
  H      197.122    -166.277     191.764
  H      194.340    -164.623     196.677
  H      197.874    -166.378     198.126
  H      197.941    -167.730     196.044
  H      195.367    -167.440     193.403
  H      198.402    -167.693     193.840
  H      198.262    -169.021     191.745
  H      196.071    -170.434     192.760
  H      197.551    -171.149     194.768
  H      198.186    -171.477     193.134
  P      196.129    -169.327     189.962
  C      193.852    -169.974     188.916
  O      194.729    -168.918     189.293
  O      196.297    -170.802     190.144
  O      197.222    -168.745     188.945
  H      197.468    -169.432     188.303
  H      192.963    -169.563     188.486
  H      193.597    -170.551     189.780
  H      194.338    -170.602     188.198

 6  7  8  9  10  11  12  13  14  15  16  27  31  32  33  34  35 0
 6-311+G(2d,p)
 ****
 36  37 0
 6-311+G(2d,p)
 ****
 1  2  3  4  5  17  18  19  20  21  22  23  24  25 0
 3-21G
 ****
 26  28  29  30  38  39  40  41  42  43  44  45 0
 3-21G
 ****


