%nproc=1
%NoSave
%Mem=1900MB
#P OB98/GEN NMR

erre ene a

0 1
  C      200.946     -26.287      66.796
  O      202.042     -26.684      65.995
  H      200.308     -27.157      66.970
  H      200.361     -25.516      66.286
  H      201.303     -25.912      67.758
  P      203.087     -25.536      65.591
  C      204.395     -25.413      67.808
  O      204.397     -25.869      66.461
  C      205.806     -25.472      68.395
  O      205.848     -24.639      69.580
  C      206.237     -26.883      68.802
  O      207.620     -27.057      68.499
  C      206.040     -26.895      70.307
  O      206.879     -27.846      70.957
  C      206.335     -25.440      70.670
  N      207.046     -24.731      75.672
  C      207.908     -24.983      74.663
  N      207.633     -25.143      73.350
  C      206.321     -24.969      73.115
  C      205.324     -24.711      74.040
  C      205.731     -24.598      75.380
  N      204.857     -24.367      76.417
  N      204.093     -24.644      73.416
  C      204.346     -24.843      72.136
  N      205.677     -25.061      71.909
  O      202.586     -24.136      65.701
  O      203.523     -25.996      64.123
  H      206.744     -27.764      71.925
  H      203.687     -26.957      64.082
  H      208.953     -25.075      74.946
  H      203.604     -24.854      71.345
  H      207.406     -25.247      70.797
  H      204.998     -27.149      70.540
  H      205.650     -27.659      68.308
  H      206.506     -25.034      67.673
  H      203.722     -26.029      68.413
  H      205.234     -24.284      77.348
  H      203.874     -24.246      76.219
  H      204.025     -24.383      67.815
  P      208.016     -27.929      67.213
  C      208.522     -25.722      65.977
  O      208.963     -27.044      66.267
  O      206.891     -28.626      66.525
  O      209.051     -28.992      67.825
  H      208.915     -29.855      67.386
  H      209.235     -25.239      65.342
  H      208.425     -25.170      66.889
  H      207.574     -25.763      65.482

 6  7  8  9  10  11  12  13  14  15  25  28  32  33  34  35 0
 6-311+G(2d,p)
 ****
 36  39  40 0
 6-311+G(2d,p)
 ****
 1  2  3  4  5  16  17  18  19  20  21  22  23  24 0
 3-21G
 ****
 26  27  29  30  31  37  38  41  42  43  44  45  46  47 0
 3-21G
 ****
 48 0
 3-21G
 ****


