%nproc=1
%NoSave
%Mem=1900MB
#P OB98/GEN NMR

erre ene a

0 1
  C     -178.229    -119.446    -576.063
  O     -178.925    -119.203    -577.283
  P     -180.497    -118.898    -577.215
  C     -181.348    -120.530    -579.024
  O     -181.134    -119.172    -578.669
  C     -180.890    -120.789    -580.471
  O     -179.515    -121.273    -580.435
  C     -181.684    -121.869    -581.222
  O     -182.840    -121.461    -581.958
  C     -180.659    -122.331    -582.250
  O     -180.659    -121.441    -583.383
  C     -179.330    -122.215    -581.512
  N     -177.126    -126.694    -582.691
  C     -177.455    -125.616    -583.442
  N     -178.040    -124.465    -583.052
  C     -178.277    -124.472    -581.727
  C     -177.989    -125.492    -580.835
  C     -177.393    -126.647    -581.361
  N     -177.061    -127.743    -580.592
  N     -178.380    -125.138    -579.554
  C     -178.911    -123.938    -579.687
  N     -178.856    -123.489    -580.977
  O     -180.889    -117.608    -576.578
  O     -181.052    -120.143    -576.366
  H     -181.593    -121.335    -583.646
  H     -181.773    -119.830    -575.780
  H     -177.225    -125.698    -584.501
  H     -179.340    -123.366    -578.880
  H     -178.524    -121.824    -582.149
  H     -180.880    -123.334    -582.641
  H     -181.946    -122.698    -580.556
  H     -180.903    -119.852    -581.032
  H     -182.417    -120.767    -578.937
  H     -176.676    -128.548    -581.055
  H     -177.300    -127.752    -579.608
  H     -180.830    -121.154    -578.298
  P     -184.189    -122.322    -581.931
  C     -185.138    -121.745    -584.299
  O     -185.207    -121.554    -582.910
  O     -184.727    -122.617    -580.578
  O     -183.789    -123.622    -582.788
  H     -183.634    -123.445    -583.728
  H     -186.037    -121.312    -584.759
  H     -185.099    -122.813    -584.549
  H     -184.260    -121.232    -584.703
  H     -177.196    -119.632    -576.272
  H     -178.653    -120.298    -575.574
  H     -178.315    -118.590    -575.427

 3  4  5  6  7  8  9  10  11  12  22  25  29  30  31  32 0
 6-311+G(2d,p)
 ****
 33  36  37 0
 6-311+G(2d,p)
 ****
 1  2  13  14  15  16  17  18  19  20  21  23  24  26 0
 3-21G
 ****
 27  28  34  35  38  39  40  41  42  43  44  45  46  47  48 0
 3-21G
 ****


