%nproc=1
%NoSave
%Mem=1900MB
#P OB98/GEN NMR

erre ene a

0 1
  C      225.255     156.703    -278.498
  O      224.700     158.002    -278.471
  H      225.693     156.470    -277.523
  H      224.457     155.983    -278.703
  H      226.015     156.619    -279.279
  P      225.724     159.237    -278.482
  C      225.952     159.179    -281.069
  O      225.576     159.933    -279.926
  C      227.106     159.861    -281.801
  O      227.575     158.969    -282.853
  C      226.741     161.204    -282.452
  O      227.847     162.098    -282.295
  C      226.595     160.850    -283.920
  O      226.821     161.964    -284.777
  C      227.633     159.743    -284.066
  N      228.817     159.043    -288.961
  C      229.426     159.737    -287.976
  N      229.070     159.826    -286.678
  C      228.006     159.047    -286.421
  C      227.284     158.280    -287.319
  C      227.723     158.306    -288.655
  N      227.070     157.658    -289.679
  N      226.221     157.667    -286.682
  C      226.286     158.082    -285.433
  N      227.346     158.919    -285.227
  O      227.146     158.502    -278.565
  O      225.637     160.158    -277.314
  H      226.883     161.646    -285.698
  H      227.460     158.296    -277.666
  H      230.306     160.302    -288.272
  H      225.582     157.834    -284.650
  H      228.654     160.131    -284.179
  H      225.583     160.471    -284.107
  H      225.834     161.661    -282.038
  H      227.938     159.987    -281.095
  H      225.095     159.109    -281.748
  H      227.392     157.825    -290.618
  H      226.189     157.200    -289.485
  H      226.239     158.169    -280.758
  P      227.708     163.258    -281.196
  C      228.470     162.131    -278.977
  O      228.798     163.008    -280.049
  O      226.320     162.916    -280.473
  O      227.701     164.640    -281.769
  H      225.878     163.734    -280.188
  H      229.296     162.071    -278.300
  H      228.256     161.157    -279.366
  H      227.612     162.506    -278.460

 6  7  8  9  10  11  12  13  14  15  25  28  32  33  34  35 0
 6-311+G(2d,p)
 ****
 36  39  40 0
 6-311+G(2d,p)
 ****
 1  2  3  4  5  16  17  18  19  20  21  22  23  24 0
 3-21G
 ****
 26  27  29  30  31  37  38  41  42  43  44  45  46  47 0
 3-21G
 ****
 48 0
 3-21G
 ****


