%nproc=1
%NoSave
%Mem=1900MB
#P OB98/GEN NMR

erre ene a

0 1
  C     -164.285    -263.128     352.543
  O     -164.983    -262.460     353.572
  H     -163.549    -263.801     352.995
  H     -163.760    -262.405     351.915
  H     -164.977    -263.718     351.936
  P     -166.114    -261.417     353.121
  C     -165.533    -258.957     353.708
  O     -165.348    -260.037     352.805
  C     -164.662    -257.767     353.303
  O     -165.135    -257.251     352.026
  C     -164.689    -256.608     354.309
  O     -163.381    -256.031     354.382
  C     -165.632    -255.611     353.659
  O     -165.413    -254.283     354.122
  C     -165.302    -255.830     352.186
  N     -166.280    -254.421     347.455
  C     -165.131    -254.944     348.016
  N     -164.074    -255.114     347.193
  N     -165.026    -255.267     349.278
  C     -166.167    -255.066     349.979
  C     -167.362    -254.548     349.546
  C     -167.460    -254.173     348.152
  O     -168.442    -253.684     347.602
  N     -168.268    -254.469     350.575
  C     -167.620    -254.941     351.626
  N     -166.343    -255.320     351.312
  O     -166.894    -261.098     354.483
  O     -167.031    -261.887     352.043
  H     -164.497    -254.028     353.883
  H     -167.830    -260.883     354.305
  H     -166.304    -254.178     346.481
  H     -168.026    -255.028     352.624
  H     -164.368    -255.337     351.888
  H     -166.673    -255.882     353.872
  H     -164.092    -254.918     346.204
  H     -165.017    -256.903     355.309
  H     -163.224    -255.510     347.581
  H     -163.638    -258.123     353.138
  H     -165.256    -259.284     354.716
  H     -166.587    -258.662     353.704
  P     -162.447    -256.463     355.611
  C     -163.705    -255.160     357.471
  O     -163.319    -256.427     356.959
  O     -161.463    -255.208     355.772
  O     -161.682    -257.723     355.375
  H     -160.571    -255.449     355.466
  H     -164.277    -255.296     358.365
  H     -164.298    -254.647     356.743
  H     -162.831    -254.583     357.690

 6  7  8  9  10  11  12  13  14  15  26  29  33  34 0
 6-311+G(2d,p)
 ****
 36  38  39  40  41 0
 6-311+G(2d,p)
 ****
 1  2  3  4  5  16  17  18  19  20  21  22  23  24  25 0
 3-21G
 ****
 27  28  30  31  32  35  37  42  43  44  45  46  47 0
 3-21G
 ****
 48  49 0
 3-21G
 ****


