%nproc=1
%NoSave
%Mem=1900MB
#P OB98/GEN NMR

erre ene a

0 1
  C     1054.370    -892.740    -356.359
  O     1055.332    -893.180    -357.309
  P     1056.363    -892.080    -357.886
  C     1056.376    -893.650    -359.999
  O     1057.083    -892.760    -359.143
  C     1057.339    -894.650    -360.628
  O     1058.395    -893.950    -361.349
  C     1058.068    -895.540    -359.631
  O     1057.233    -896.580    -359.133
  C     1059.259    -896.020    -360.460
  O     1058.861    -897.110    -361.328
  C     1059.594    -894.780    -361.281
  N     1060.718    -894.010    -360.752
  C     1061.958    -894.660    -360.717
  O     1062.091    -895.840    -361.098
  N     1062.994    -893.960    -360.173
  C     1062.914    -892.700    -359.643
  O     1063.877    -892.130    -359.139
  C     1061.580    -892.070    -359.680
  C     1060.555    -892.730    -360.227
  O     1057.475    -892.080    -356.729
  O     1055.716    -890.750    -358.151
  H     1057.511    -892.930    -356.259
  H     1059.689    -897.420    -361.784
  H     1063.884    -894.400    -360.173
  H     1061.496    -891.080    -359.256
  H     1059.573    -892.280    -360.260
  H     1059.814    -895.050    -362.320
  H     1060.083    -896.390    -359.842
  H     1058.431    -894.950    -358.777
  H     1056.789    -895.270    -361.353
  H     1055.901    -893.080    -360.785
  H     1055.596    -894.180    -359.421
  P     1057.140    -896.770    -357.546
  C     1056.505    -899.300    -357.637
  O     1056.132    -897.990    -357.295
  O     1056.300    -895.470    -357.111
  O     1058.488    -896.890    -356.884
  H     1055.579    -895.280    -357.712
  H     1055.864    -900.000    -357.074
  H     1057.530    -899.500    -357.392
  H     1056.337    -899.450    -358.712
  H     1053.757    -893.566    -356.064
  H     1053.758    -891.980    -356.797
  H     1054.872    -892.344    -355.501

 3  4  5  6  7  8  9  10  11  12  13  24  28  29  30  31  32 0
 6-311+G(2d,p)
 ****
 33  34 0
 6-311+G(2d,p)
 ****
 1  2  14  15  16  17  18  19  20  21  22  23  25  26  27 0
 3-21G
 ****
 35  36  37  38  39  40  41  42  43  44  45 0
 3-21G
 ****


