%nproc=1
%NoSave
%Mem=1900MB
#P OB98/GEN NMR

erre ene a

0 1
  C     -205.451    -250.558    -174.352
  O     -204.652    -249.821    -175.271
  P     -203.963    -250.615    -176.484
  C     -204.664    -248.623    -177.984
  O     -203.637    -249.533    -177.627
  C     -204.087    -247.266    -178.396
  O     -203.485    -246.638    -177.227
  C     -202.999    -247.341    -179.474
  O     -203.108    -246.148    -180.268
  C     -201.712    -247.288    -178.673
  O     -200.601    -246.870    -179.461
  C     -202.116    -246.318    -177.570
  N     -197.916    -244.557    -175.242
  C     -198.512    -244.207    -176.402
  N     -199.633    -244.722    -176.957
  C     -200.140    -245.696    -176.182
  C     -199.621    -246.183    -174.993
  C     -198.452    -245.565    -174.514
  N     -197.846    -245.910    -173.327
  N     -200.405    -247.208    -174.508
  C     -201.381    -247.337    -175.385
  N     -201.275    -246.433    -176.400
  O     -205.184    -251.450    -177.096
  O     -202.832    -251.509    -176.099
  H     -199.803    -246.873    -178.901
  H     -205.055    -252.405    -176.929
  H     -198.030    -243.406    -176.962
  H     -202.176    -248.075    -175.330
  H     -202.090    -245.271    -177.904
  H     -201.487    -248.280    -178.272
  H     -203.061    -248.231    -180.117
  H     -204.912    -246.621    -178.725
  H     -205.320    -248.473    -177.127
  H     -197.097    -245.330    -172.990
  H     -198.344    -246.524    -172.690
  H     -205.260    -249.046    -178.806
  P     -203.676    -246.323    -181.764
  C     -204.862    -244.012    -181.815
  O     -203.848    -244.845    -182.361
  O     -205.182    -246.820    -181.527
  O     -202.897    -247.279    -182.603
  H     -205.472    -247.356    -182.291
  H     -204.516    -242.975    -181.847
  H     -205.097    -244.277    -180.780
  H     -205.765    -244.108    -182.424
  H     -205.839    -249.896    -173.606
  H     -204.853    -251.312    -173.884
  H     -206.262    -251.020    -174.875

 3  4  5  6  7  8  9  10  11  12  22  25  29  30  31  32 0
 6-311+G(2d,p)
 ****
 33  36  37 0
 6-311+G(2d,p)
 ****
 1  2  13  14  15  16  17  18  19  20  21  23  24  26 0
 3-21G
 ****
 27  28  34  35  38  39  40  41  42  43  44  45  46  47  48 0
 3-21G
 ****


