%nproc=1
%NoSave
%Mem=1900MB
#P OB98/GEN NMR

erre ene a

0 1
  C     -295.703     -33.292     136.233
  O     -295.927     -33.888     137.497
  H     -294.627     -33.267     136.041
  H     -296.085     -32.265     136.230
  H     -296.192     -33.873     135.447
  P     -297.456     -34.058     137.954
  C     -299.270     -32.436     138.881
  O     -298.008     -32.577     138.236
  C     -299.933     -31.131     138.445
  O     -299.965     -31.066     137.000
  C     -301.380     -30.984     138.893
  O     -301.479     -30.581     140.251
  C     -301.891     -29.939     137.912
  O     -301.564     -28.611     138.337
  C     -301.119     -30.281     136.630
  N     -305.230     -29.986     133.626
  C     -304.617     -29.071     134.411
  N     -303.510     -29.226     135.171
  C     -303.027     -30.477     135.052
  C     -303.547     -31.515     134.295
  C     -304.705     -31.233     133.550
  N     -305.351     -32.173     132.779
  N     -302.799     -32.665     134.470
  C     -301.839     -32.320     135.307
  N     -301.934     -31.008     135.678
  O     -297.321     -34.698     139.416
  O     -298.303     -34.892     137.052
  H     -301.855     -28.008     137.627
  H     -297.391     -35.669     139.355
  H     -305.081     -28.089     134.436
  H     -301.065     -32.984     135.678
  H     -300.746     -29.383     136.120
  H     -302.978     -29.984     137.806
  H     -301.930     -31.920     138.727
  H     -299.321     -30.293     138.807
  H     -299.123     -32.422     139.965
  H     -299.899     -33.295     138.617
  H     -306.188     -31.905     132.289
  H     -305.026     -33.129     132.803
  P     -302.913     -30.627     140.960
  C     -304.743     -28.825     141.375
  O     -303.725     -29.316     140.515
  O     -302.566     -30.359     142.501
  O     -303.658     -31.908     140.771
  H     -302.558     -31.197     142.999
  H     -305.187     -27.953     140.941
  H     -304.318     -28.574     142.324
  H     -305.492     -29.578     141.508

 6  7  8  9  10  11  12  13  14  15  25  28  32  33  34  35 0
 6-311+G(2d,p)
 ****
 36  37  40 0
 6-311+G(2d,p)
 ****
 1  2  3  4  5  16  17  18  19  20  21  22  23  24 0
 3-21G
 ****
 26  27  29  30  31  38  39 41  42  43  44  45  46  47  48 0
 3-21G
 ****


