%nproc=1
%NoSave
%Mem=1900MB
#P OB98/GEN NMR

erre ene a

0 1
  C     -533.359       1.811    -497.813
  O     -534.119       0.919    -497.025
  H     -532.951       1.262    -498.672
  H     -532.523       2.213    -497.233
  H     -533.981       2.632    -498.186
  P     -534.955       1.502    -495.793
  C     -536.763      -0.337    -495.949
  O     -535.753       0.275    -495.144
  C     -536.790      -1.842    -495.692
  O     -535.795      -2.500    -496.516
  C     -536.447      -2.230    -494.256
  O     -537.529      -1.979    -493.386
  C     -536.101      -3.695    -494.437
  O     -537.277      -4.510    -494.479
  C     -535.392      -3.693    -495.808
  N     -533.939      -3.757    -495.678
  C     -533.414      -4.903    -495.089
  O     -534.116      -5.842    -494.700
  N     -532.052      -4.914    -494.898
  C     -531.214      -3.859    -495.112
  O     -530.061      -3.832    -494.697
  C     -531.801      -2.696    -495.786
  C     -533.122      -2.688    -496.029
  O     -535.793       2.709    -496.096
  O     -533.841       1.829    -494.690
  H     -533.662       2.787    -494.687
  H     -536.977      -5.422    -494.309
  H     -531.679      -5.736    -494.436
  H     -531.155      -1.871    -496.032
  H     -533.588      -1.832    -496.501
  H     -535.720      -4.547    -496.415
  H     -535.467      -4.059    -493.627
  H     -535.559      -1.686    -493.927
  H     -537.783      -2.221    -495.981
  H     -536.531      -0.149    -496.999
  H     -537.732       0.115    -495.715
  P     -537.322      -1.055    -492.090
  C     -539.765      -0.260    -492.213
  O     -538.748      -0.830    -491.389
  O     -536.536       0.194    -492.321
  O     -536.565      -2.015    -491.055
  H     -535.776      -1.548    -490.692
  H     -540.667      -0.156    -491.646
  H     -539.943      -0.899    -493.053
  H     -539.447       0.702    -492.558

 6  7  8  9  10  11  12  13  14  15  16  27  31  32  33  34  35 0
 6-311+G(2d,p)
 ****
 36  37 0
 6-311+G(2d,p)
 ****
 1  2  3  4  5  17  18  19  20  21  22  23  24  25 0
 3-21G
 ****
 26  28  29  30  38  39  40  41  42  43  44  45 0
 3-21G
 ****


