%nproc=1
%NoSave
%Mem=1900MB
#P OB98/GEN NMR

erre ene a

0 1
  C     -292.608     452.313    -497.454
  O     -291.756     453.032    -498.325
  H     -293.432     451.896    -498.038
  H     -293.018     452.988    -496.699
  H     -292.073     451.492    -496.971
  P     -290.321     453.500    -497.793
  C     -288.994     452.242    -499.608
  O     -289.279     452.356    -498.227
  C     -288.164     450.983    -499.896
  O     -289.022     449.816    -499.747
  C     -287.567     450.940    -501.311
  O     -286.334     450.210    -501.234
  C     -288.612     450.128    -502.061
  O     -288.105     449.617    -503.272
  C     -288.989     449.098    -500.994
  N     -290.265     448.438    -501.277
  C     -290.261     447.499    -502.311
  O     -289.267     447.247    -502.987
  N     -291.464     446.895    -502.586
  C     -292.648     447.179    -501.968
  O     -293.698     446.629    -502.273
  C     -292.596     448.203    -500.920
  C     -291.426     448.775    -500.624
  O     -290.259     453.890    -496.349
  O     -289.921     454.716    -498.754
  H     -287.623     450.317    -503.758
  H     -289.352     455.357    -498.271
  H     -291.477     446.216    -503.317
  H     -293.531     448.458    -500.418
  H     -291.361     449.537    -499.854
  H     -288.217     448.321    -500.916
  H     -289.483     450.752    -502.313
  H     -287.407     451.922    -501.744
  H     -287.382     450.904    -499.140
  H     -288.431     453.132    -499.913
  H     -289.928     452.202    -500.180
  P     -284.931     450.939    -500.979
  C     -284.562     449.971    -498.626
  O     -284.741     451.148    -499.402
  O     -284.722     452.177    -501.793
  O     -283.831     449.833    -501.342
  H     -283.006     450.269    -501.638
  H     -284.447     450.237    -497.596
  H     -283.688     449.453    -498.961
  H     -285.417     449.337    -498.737

 6  7  8  9  10  11  12  13  14  15  16  26  31  32  33  34  35 0
 6-311+G(2d,p)
 ****
 36  37 0
 6-311+G(2d,p)
 ****
 1  2  3  4  5  17  18  19  20  21  22  23  24  25 0
 3-21G
 ****
 27  28  29  30  38  39  40  41  42  43  44  45 0
 3-21G
 ****


