%nproc=1
%NoSave
%Mem=1900MB
#P OB98/GEN NMR

erre ene a

0 1
  C     1888.405       2.938      97.864
  O     1888.007       4.181      98.417
  H     1888.419       3.006      96.774
  H     1889.408       2.695      98.214
  H     1887.713       2.150      98.178
  P     1886.549       4.717      98.031
  C     1885.399       3.781     100.163
  O     1885.512       3.722      98.746
  C     1883.965       4.125     100.545
  O     1883.060       3.101     100.066
  C     1883.708       4.209     102.045
  O     1884.118       5.471     102.588
  C     1882.207       4.052     102.097
  O     1881.568       5.284     101.704
  C     1881.968       2.968     101.025
  N     1878.999      -0.782     102.816
  C     1878.700       0.467     102.387
  N     1879.561       1.397     101.928
  C     1880.821       0.954     101.944
  C     1881.263      -0.288     102.368
  C     1880.287      -1.187     102.821
  N     1880.571      -2.451     103.278
  N     1882.642      -0.375     102.270
  C     1883.008       0.786     101.761
  N     1881.954       1.622     101.568
  O     1886.402       4.342      96.488
  O     1886.299       6.167      98.297
  H     1881.919       5.516     100.822
  H     1885.714       4.900      96.067
  H     1877.659       0.743     102.410
  H     1884.032       1.057     101.526
  H     1881.032       3.118     100.483
  H     1881.831       3.799     103.087
  H     1884.185       3.375     102.581
  H     1883.689       5.062     100.050
  H     1886.065       4.552     100.547
  H     1879.824      -2.943     103.754
  H     1881.545      -2.707     103.425
  H     1885.674       2.804     100.586
  P     1884.935       5.443     103.963
  C     1887.230       5.600     102.729
  O     1886.378       4.852     103.601
  O     1884.235       4.280     104.785
  O     1884.932       6.754     104.708
  H     1884.324       4.426     105.750
  H     1888.150       5.071     102.589
  H     1887.431       6.558     103.162
  H     1886.746       5.730     101.783

 6  7  8  9  10  11  12  13  14  15  25  28  32  33  34  35 0
 6-311+G(2d,p)
 ****
 36  39  40 0
 6-311+G(2d,p)
 ****
 1  2  3  4  5  16  17  18  19  20  21  22  23  24 0
 3-21G
 ****
 26  27  29  30  31  37  38  41  42  43  44  45  46  47 0
 3-21G
 ****
 48 0
 3-21G
 ****


