%nproc=1
%NoSave
%Mem=1900MB
#P OB98/GEN NMR

erre ene a

0 1
  C     -303.871    -306.233     276.598
  O     -303.874    -305.753     275.250
  P     -302.462    -305.290     274.648
  C     -303.257    -303.053     273.586
  O     -302.745    -304.361     273.368
  C     -304.121    -302.622     272.402
  O     -305.497    -303.032     272.567
  C     -304.171    -301.114     272.205
  O     -302.964    -300.628     271.635
  C     -305.397    -300.984     271.306
  O     -305.055    -301.296     269.941
  C     -306.327    -302.071     271.869
  N     -311.229    -300.693     272.342
  C     -310.524    -301.174     271.294
  N     -309.221    -301.516     271.250
  C     -308.636    -301.324     272.444
  C     -309.228    -300.847     273.601
  C     -310.593    -300.518     273.520
  N     -311.310    -300.013     274.583
  N     -308.312    -300.792     274.630
  C     -307.179    -301.205     274.095
  N     -307.330    -301.551     272.781
  O     -301.869    -306.634     274.019
  O     -301.541    -304.697     275.668
  H     -304.480    -300.573     269.614
  H     -301.124    -306.955     274.563
  H     -311.081    -301.300     270.369
  H     -306.233    -301.270     274.618
  H     -306.857    -302.611     271.079
  H     -305.829    -299.975     271.313
  H     -304.357    -300.612     273.162
  H     -303.722    -303.101     271.497
  H     -302.435    -302.342     273.722
  H     -312.263    -299.727     274.419
  H     -310.822    -299.793     275.442
  H     -303.835    -303.053     274.517
  P     -302.114    -299.565     272.479
  C     -301.637    -297.919     270.565
  O     -301.108    -298.939     271.391
  O     -301.158    -300.518     273.330
  O     -302.925    -298.585     273.258
  H     -300.770    -301.227     272.783
  H     -300.846    -297.559     269.904
  H     -301.991    -297.087     271.177
  H     -302.457    -298.310     269.960
  H     -304.865    -306.509     276.881
  H     -303.515    -305.463     277.250
  H     -303.230    -307.086     276.671

 3  4  5  6  7  8  9  10  11  12  22  25  29  30  31  32 0
 6-311+G(2d,p)
 ****
 33  36  37 0
 6-311+G(2d,p)
 ****
 1  2  13  14  15  16  17  18  19  20  21  23  24  26 0
 3-21G
 ****
 27  28  34  35  38  39  40  41  42  43  44  45  46  47  48 0
 3-21G
 ****


