%nproc=1
%NoSave
%Mem=1900MB
#P OB98/GEN NMR

erre ene a

0 1
  C       70.946     -38.854     190.318
  O       71.920     -38.186     191.093
  H       71.314     -38.934     189.291
  H       70.014     -38.285     190.309
  H       70.765     -39.860     190.704
  P       71.691     -38.050     192.673
  C       71.961     -39.647     194.678
  O       71.738     -39.535     193.278
  C       71.177     -40.831     195.237
  O       69.757     -40.586     195.135
  C       71.426     -42.140     194.495
  O       72.681     -42.688     194.849
  C       70.217     -42.946     194.943
  O       70.412     -43.481     196.260
  C       69.111     -41.865     194.953
  N       68.294     -41.876     193.738
  C       67.577     -43.043     193.492
  O       67.611     -44.023     194.231
  N       66.848     -43.060     192.331
  C       66.843     -42.083     191.378
  O       66.356     -42.232     190.262
  C       67.558     -40.846     191.728
  C       68.253     -40.806     192.867
  O       70.513     -37.234     193.090
  O       73.062     -37.409     193.197
  H       72.934     -36.453     193.349
  H       70.394     -42.720     196.873
  H       66.362     -43.919     192.119
  H       67.524     -40.023     191.025
  H       68.811     -39.915     193.130
  H       68.444     -42.009     195.813
  H       70.013     -43.792     194.282
  H       71.363     -41.978     193.413
  H       71.427     -40.935     196.301
  H       71.620     -38.724     195.160
  H       73.034     -39.769     194.861
  P       73.527     -43.559     193.807
  C       74.751     -43.144     191.595
  O       73.746     -42.680     192.485
  O       72.998     -44.933     193.555
  O       74.995     -43.622     194.445
  H       75.276     -44.555     194.508
  H       74.812     -42.487     190.752
  H       74.504     -44.130     191.261
  H       75.694     -43.164     192.101

 6  7  8  9  10  11  12  13  14  15  16  27  31  32  33  34  35 0
 6-311+G(2d,p)
 ****
 36  37 0
 6-311+G(2d,p)
 ****
 1  2  3  4  5  17  18  19  20  21  22  23  24  25 0
 3-21G
 ****
 26  28  29  30  38  39  40  41  42  43  44  45 0
 3-21G
 ****


