%nproc=1
%NoSave
%Mem=1900MB
#P OB98/GEN NMR

erre ene a

0 1
  C     -360.784    -252.151     137.926
  O     -359.465    -251.870     137.487
  P     -359.014    -252.488     136.078
  C     -356.872    -252.243     134.619
  O     -357.470    -252.096     135.902
  C     -355.400    -251.842     134.667
  O     -355.278    -250.430     134.898
  C     -354.614    -252.514     135.781
  O     -354.301    -253.852     135.437
  C     -353.396    -251.601     135.884
  O     -352.377    -251.991     134.950
  C     -353.987    -250.215     135.516
  N     -354.084    -249.328     136.663
  C     -352.900    -248.680     137.030
  O     -351.859    -248.893     136.410
  N     -352.918    -247.839     138.118
  C     -354.028    -247.666     138.777
  N     -353.991    -246.821     139.838
  C     -355.289    -248.348     138.428
  C     -355.246    -249.165     137.376
  O     -359.759    -251.559     135.011
  O     -359.339    -253.934     135.893
  H     -351.993    -252.816     135.312
  H     -359.912    -252.040     134.179
  H     -356.181    -248.167     139.011
  H     -356.131    -249.698     137.053
  H     -353.364    -249.726     134.760
  H     -352.948    -251.631     136.882
  H     -355.178    -252.485     136.720
  H     -354.950    -252.068     133.687
  H     -353.106    -246.370     140.055
  H     -357.390    -251.591     133.904
  H     -354.798    -246.601     140.402
  H     -356.986    -253.281     134.288
  P     -353.569    -254.750     136.541
  C     -353.255    -257.274     136.885
  O     -353.839    -256.260     136.085
  O     -354.544    -254.600     137.803
  O     -352.156    -254.397     136.881
  H     -354.152    -255.027     138.582
  H     -353.643    -258.243     136.564
  H     -353.505    -257.121     137.939
  H     -352.168    -257.266     136.756
  H     -360.952    -251.682     138.873
  H     -360.909    -253.209     138.025
  H     -361.486    -251.774     137.211

 3  4  5  6  7  8  9  10  11  12  13  21  23  27  28  29  30  32 0
 6-311+G(2d,p)
 ****
 34  35 0
 6-311+G(2d,p)
 ****
 1  2  14  15  16  17  18  19  20  22  24  25  26 0
 3-21G
 ****
 31  33  36  37  38  39  40  41  42  43  44  45  46 0
 3-21G
 ****


