%nproc=1
%NoSave
%Mem=1900MB
#P OB98/GEN NMR

erre ene a

0 1
  C      475.705    -893.628      13.698
  O      474.574    -893.398      12.875
  H      476.457    -894.178      13.115
  H      475.425    -894.248      14.556
  H      476.129    -892.688      14.035
  P      473.443    -892.428      13.440
  C      471.623    -894.298      13.399
  O      472.365    -893.368      14.182
  C      470.594    -895.018      14.276
  O      469.680    -894.028      14.817
  C      469.740    -896.058      13.524
  O      469.495    -897.158      14.410
  C      468.465    -895.328      13.245
  O      467.342    -896.178      13.034
  C      468.330    -894.458      14.511
  N      467.420    -893.338      14.348
  C      466.674    -892.948      15.445
  O      466.795    -893.418      16.571
  N      465.752    -891.958      15.211
  C      465.496    -891.338      14.025
  O      464.649    -890.468      13.878
  C      466.317    -891.798      12.885
  C      467.227    -892.778      13.094
  O      472.671    -891.958      12.121
  O      473.926    -891.278      14.259
  H      473.077    -891.148      11.747
  H      466.541    -895.628      12.945
  H      465.204    -891.648      15.999
  H      466.134    -891.358      11.918
  H      467.828    -893.138      12.272
  H      467.986    -895.088      15.362
  H      468.574    -894.688      12.371
  H      470.208    -896.418      12.606
  H      471.092    -895.458      15.124
  H      472.314    -895.028      12.981
  H      471.127    -893.768      12.581
  P      470.414    -898.448      14.269
  C      468.666    -899.338      12.515
  O      470.023    -899.108      12.853
  O      469.746    -899.428      15.351
  O      471.859    -898.168      14.474
  H      468.781    -899.318      15.415
  H      468.611    -899.780      11.542
  H      468.136    -898.409      12.516
  H      468.227    -900.000      13.232

 6  7  8  9  10  11  12  13  14  15  16  27  31  32  33  34  35 0
 6-311+G(2d,p)
 ****
 36  37 0
 6-311+G(2d,p)
 ****
 1  2  3  4  5  17  18  19  20  21  22  23  24  25 0
 3-21G
 ****
 26  28  29  30  38  39  40  41  42  43  44  45 0
 3-21G
 ****


