%nproc=1
%NoSave
%Mem=1900MB
#P OB98/GEN NMR

erre ene a

0 1
  C      -81.996     355.687      68.104
  O      -83.231     355.315      67.512
  P      -83.766     353.821      67.761
  C      -83.388     353.274      65.239
  O      -84.280     353.277      66.342
  C      -84.142     352.998      63.939
  O      -84.654     351.639      63.981
  C      -85.339     353.923      63.678
  O      -85.442     354.084      62.256
  C      -86.515     353.110      64.184
  O      -87.758     353.533      63.628
  C      -86.084     351.704      63.784
  N      -89.718     348.186      63.862
  C      -89.406     349.115      62.889
  N      -90.131     349.052      61.750
  N      -88.470     350.017      63.014
  C      -87.818     349.945      64.201
  C      -88.059     349.099      65.258
  C      -89.071     348.080      65.090
  O      -89.319     347.185      65.892
  N      -87.251     349.388      66.325
  C      -86.469     350.353      65.887
  N      -86.745     350.692      64.588
  O      -85.113     354.059      68.589
  O      -82.815     352.900      68.461
  H      -88.468     353.010      64.054
  H      -84.950     354.005      69.551
  H      -90.438     347.500      63.700
  H      -85.690     350.835      66.453
  H      -86.296     351.481      62.730
  H      -86.591     353.207      65.275
  H      -90.847     348.367      61.571
  H      -85.255     354.896      64.167
  H      -89.904     349.702      61.004
  H      -83.430     353.053      63.108
  H      -82.646     352.486      65.388
  H      -82.866     354.234      65.191
  P      -85.758     355.549      61.689
  C      -88.117     354.796      60.921
  O      -86.888     355.397      60.565
  O      -84.440     355.892      60.841
  O      -86.004     356.585      62.733
  H      -84.272     356.854      60.874
  H      -88.887     355.116      60.215
  H      -88.427     355.075      61.932
  H      -88.016     353.706      60.864
  H      -81.771     356.702      67.852
  H      -81.219     355.049      67.739
  H      -82.067     355.590      69.167

 3  4  5  6  7  8  9  10  11  12  23  26  30  31 0
 6-311+G(2d,p)
 ****
 33  35  36  37  38 0
 6-311+G(2d,p)
 ****
 1  2  13  14  15  16  17  18  19  20  21  22  24  25 0
 3-21G
 ****
 27  28  29  32  34  39  40  41  42  43  44  45  46  47  48  49 0
 3-21G
 ****


