%nproc=1
%NoSave
%Mem=1900MB
#P OB98/GEN NMR

erre ene a

0 1
  C      456.028     -98.916     276.646
  O      455.057     -99.156     277.670
  P      453.598     -98.516     277.464
  C      452.609    -100.934     277.273
  O      452.741     -99.639     276.706
  C      451.156    -101.401     277.179
  O      450.275    -100.461     277.844
  C      450.629    -101.511     275.758
  O      451.145    -102.659     275.102
  C      449.127    -101.540     276.007
  O      448.710    -102.859     276.400
  C      448.983    -100.569     277.200
  N      448.471     -99.261     276.811
  C      447.451     -98.748     277.611
  O      446.981     -99.354     278.571
  N      446.976     -97.518     277.251
  C      447.387     -96.779     276.179
  O      446.930     -95.676     275.916
  C      448.430     -97.394     275.345
  C      448.919     -98.589     275.692
  O      453.898     -97.417     276.341
  O      453.006     -97.989     278.729
  H      454.576     -97.701     275.704
  H      449.188    -103.483     275.818
  H      446.245     -97.123     277.824
  H      448.764     -96.848     274.471
  H      449.687     -99.059     275.088
  H      448.303    -100.990     277.951
  H      448.548    -101.264     275.123
  H      450.890    -100.613     275.191
  H      451.074    -102.368     277.690
  H      452.912    -100.913     278.324
  H      453.280    -101.620     276.747
  P      452.098    -102.402     273.833
  C      453.855    -103.941     275.007
  O      453.586    -102.746     274.306
  O      452.076    -100.804     273.750
  O      451.638    -103.090     272.590
  H      452.175    -100.377     274.614
  H      454.922    -104.161     274.933
  H      453.293    -104.783     274.591
  H      453.595    -103.811     276.060
  H      456.948     -99.395     276.908
  H      456.190     -97.863     276.548
  H      455.672     -99.311     275.717

 3  4  5  6  7  8  9  10  11  12  13  24  28  29  30  31  32 0
 6-311+G(2d,p)
 ****
 33  34 0
 6-311+G(2d,p)
 ****
 1  2  14  15  16  17  18  19  20  21  22  23  25  26  27 0
 3-21G
 ****
 35  36  37  38  39  40  41  42  43  44  45 0
 3-21G
 ****


