%nproc=1
%NoSave
%Mem=1900MB
#P OB98/GEN NMR

erre ene a

0 1
  C     -462.054    -323.977    -118.733
  O     -461.529    -323.743    -117.442
  H     -462.931    -323.340    -118.872
  H     -462.362    -325.022    -118.822
  H     -461.322    -323.742    -119.506
  P     -460.067    -324.301    -117.093
  C     -458.849    -322.022    -117.026
  O     -459.006    -323.262    -117.703
  C     -457.409    -321.854    -116.527
  O     -456.512    -321.907    -117.662
  C     -457.204    -320.486    -115.858
  O     -456.175    -320.520    -114.874
  C     -456.752    -319.610    -117.018
  O     -456.020    -318.461    -116.597
  C     -455.932    -320.600    -117.842
  N     -453.006    -319.492    -121.867
  C     -452.660    -319.568    -120.532
  N     -451.362    -319.318    -120.230
  N     -453.513    -319.841    -119.578
  C     -454.784    -319.993    -120.016
  C     -455.253    -319.920    -121.309
  C     -454.294    -319.651    -122.362
  O     -454.552    -319.552    -123.557
  N     -456.609    -320.123    -121.361
  C     -456.960    -320.320    -120.103
  N     -455.885    -320.273    -119.254
  O     -459.905    -325.570    -118.061
  O     -459.844    -324.671    -115.659
  H     -456.547    -318.016    -115.906
  H     -459.234    -326.178    -117.708
  H     -452.307    -319.306    -122.561
  H     -457.975    -320.505    -119.764
  H     -454.899    -320.643    -117.481
  H     -457.643    -319.253    -117.546
  H     -450.729    -318.919    -120.907
  H     -458.115    -320.099    -115.409
  H     -451.164    -319.064    -119.258
  H     -457.142    -322.689    -115.868
  H     -459.550    -322.030    -116.187
  H     -459.135    -321.194    -117.679
  P     -456.246    -319.484    -113.652
  C     -457.232    -320.992    -111.712
  O     -457.387    -319.930    -112.629
  O     -456.831    -318.155    -114.319
  O     -454.933    -319.239    -112.973
  H     -456.171    -317.438    -114.286
  H     -458.128    -321.100    -111.137
  H     -456.411    -320.782    -111.058
  H     -457.039    -321.899    -112.246

 6  7  8  9  10  11  12  13  14  15  26  29  33  34 0
 6-311+G(2d,p)
 ****
 36  38  39  40  41 0
 6-311+G(2d,p)
 ****
 1  2  3  4  5  16  17  18  19  20  21  22  23  24  25 0
 3-21G
 ****
 27  28  30  31  32  35  37  42  43  44  45  46  47 0
 3-21G
 ****
 48  49 0
 3-21G
 ****


