%nproc=1
%NoSave
%Mem=1900MB
#P OB98/GEN NMR

erre ene a

0 1
  C       47.334     433.915    -208.165
  O       47.138     432.586    -207.727
  H       46.510     434.192    -208.829
  H       48.273     433.991    -208.721
  H       47.349     434.600    -207.314
  P       48.223     431.996    -206.704
  C       49.875     431.447    -208.638
  O       49.651     432.153    -207.422
  C       51.303     430.907    -208.664
  O       52.235     432.008    -208.574
  C       51.643     429.983    -207.500
  O       51.142     428.671    -207.698
  C       53.165     430.058    -207.499
  O       53.741     429.159    -208.455
  C       53.428     431.513    -207.924
  N       57.157     432.775    -204.687
  C       57.127     431.944    -205.753
  N       56.092     431.675    -206.579
  C       55.006     432.379    -206.214
  C       54.884     433.258    -205.149
  C       56.029     433.452    -204.362
  N       56.048     434.265    -203.256
  N       53.595     433.748    -205.075
  C       52.955     433.185    -206.080
  N       53.767     432.356    -206.797
  O       47.944     430.418    -206.756
  O       48.145     432.534    -205.312
  H       54.705     429.176    -208.309
  H       47.344     430.168    -206.026
  H       58.059     431.422    -205.969
  H       51.906     433.342    -206.322
  H       54.245     431.589    -208.649
  H       53.574     429.800    -206.522
  H       51.267     430.401    -206.558
  H       51.465     430.401    -209.625
  H       49.729     432.128    -209.484
  H       49.151     430.628    -208.711
  H       56.900     434.343    -202.724
  H       55.185     434.691    -202.942
  P       50.660     427.835    -206.424
  C       52.838     426.424    -206.270
  O       51.970     427.348    -205.636
  O       50.076     426.487    -207.064
  O       49.649     428.530    -205.571
  H       49.101     426.531    -207.109
  H       53.658     426.201    -205.620
  H       53.209     426.849    -207.179
  H       52.302     425.524    -206.490

 6  7  8  9  10  11  12  13  14  15  25  28  32  33  34  35 0
 6-311+G(2d,p)
 ****
 36  37  40 0
 6-311+G(2d,p)
 ****
 1  2  3  4  5  16  17  18  19  20  21  22  23  24 0
 3-21G
 ****
 26  27  29  30  31  38  39 41  42  43  44  45  46  47  48 0
 3-21G
 ****


