%nproc=1
%NoSave
%Mem=1900MB
#P OB98/GEN NMR

erre ene a

0 1
  C      470.529    -316.443    -346.931
  O      471.942    -316.414    -346.884
  H      470.144    -316.432    -345.906
  H      470.190    -317.357    -347.423
  H      470.145    -315.568    -347.462
  P      472.705    -316.244    -348.290
  C      472.953    -318.838    -348.630
  O      472.437    -317.604    -349.097
  C      472.690    -319.955    -349.642
  O      471.256    -320.143    -349.754
  C      473.234    -319.659    -351.042
  O      473.689    -320.882    -351.619
  C      472.008    -319.168    -351.800
  O      472.149    -319.333    -353.210
  C      470.899    -320.009    -351.151
  N      469.578    -319.410    -351.316
  C      468.674    -320.098    -352.122
  O      469.006    -321.148    -352.680
  N      467.422    -319.562    -352.338
  C      467.131    -318.401    -351.828
  N      465.885    -317.914    -352.092
  C      468.066    -317.624    -350.999
  C      469.259    -318.187    -350.780
  O      474.237    -316.362    -347.840
  O      472.369    -314.989    -349.023
  H      472.332    -320.276    -353.397
  H      474.405    -317.088    -347.217
  H      467.783    -316.656    -350.609
  H      470.011    -317.681    -350.177
  H      470.876    -321.017    -351.588
  H      471.846    -318.102    -351.598
  H      474.048    -318.933    -351.033
  H      473.106    -320.888    -349.245
  H      465.284    -318.475    -352.686
  H      472.497    -319.102    -347.669
  H      465.568    -317.004    -351.797
  H      474.028    -318.714    -348.472
  P      475.254    -321.217    -351.636
  C      476.109    -319.859    -353.667
  O      476.058    -319.972    -352.249
  O      475.625    -322.552    -352.190
  O      475.637    -321.142    -350.073
  H      476.255    -321.878    -349.885
  H      476.673    -318.990    -353.936
  H      475.115    -319.773    -354.054
  H      476.578    -320.729    -354.078

 6  7  8  9  10  11  12  13  14  15  16  26  30  31  32  33  35 0
 6-311+G(2d,p)
 ****
 37  38 0
 6-311+G(2d,p)
 ****
 1  2  3  4  5  17  18  19  20  21  22  23  24  25 0
 3-21G
 ****
 27  28  29  34  36  39  40  41  42  43  44  45  46 0
 3-21G
 ****


