%nproc=1
%NoSave
%Mem=1900MB
#P OB98/GEN NMR

erre ene a

0 1
  C      105.337     439.710     332.736
  O      104.908     439.016     331.581
  H      105.160     439.080     333.612
  H      104.774     440.640     332.852
  H      106.405     439.931     332.669
  P      104.990     439.826     330.194
  C      107.592     439.676     330.023
  O      106.450     440.493     330.238
  C      108.836     440.546     329.908
  O      110.017     439.728     329.757
  C      108.833     441.484     328.706
  O      108.036     442.640     328.907
  C      110.309     441.824     328.622
  O      110.648     442.770     329.651
  C      110.952     440.446     328.902
  N      111.226     439.681     327.685
  C      112.567     439.595     327.290
  O      113.452     440.155     327.936
  N      112.874     438.904     326.140
  C      111.931     438.341     325.452
  N      112.288     437.682     324.318
  C      110.509     438.388     325.844
  C      110.233     439.070     326.956
  O      104.027     441.080     330.431
  O      104.691     439.042     328.961
  H      110.471     442.336     330.508
  H      104.105     441.710     329.675
  H      109.757     437.911     325.236
  H      109.208     439.148     327.306
  H      111.887     440.559     329.467
  H      110.590     442.274     327.666
  H      108.541     440.962     327.787
  H      108.946     441.105     330.850
  H      113.261     437.716     324.041
  H      107.440     439.108     329.097
  H      111.612     437.372     323.631
  H      107.711     438.977     330.856
  P      108.047     443.761     327.758
  C      107.113     441.954     326.139
  O      108.067     442.987     326.351
  O      109.521     444.373     327.863
  O      106.990     444.816     327.891
  H      109.511     445.338     327.720
  H      107.251     441.536     325.164
  H      106.126     442.359     326.217
  H      107.245     441.190     326.876

 6  7  8  9  10  11  12  13  14  15  16  26  30  31  32  33  35 0
 6-311+G(2d,p)
 ****
 37  38 0
 6-311+G(2d,p)
 ****
 1  2  3  4  5  17  18  19  20  21  22  23  24  25 0
 3-21G
 ****
 27  28  29  34  36  39  40  41  42  43  44  45  46 0
 3-21G
 ****


