%nproc=1
%NoSave
%Mem=1900MB
#P OB98/GEN NMR

erre ene a

0 1
  C      167.022     -34.097     167.673
  O      166.002     -33.284     167.080
  P      164.658     -33.040     167.927
  C      163.470     -35.295     167.415
  O      164.079     -34.467     168.398
  C      162.642     -36.414     168.066
  O      161.947     -37.199     167.045
  C      163.483     -37.403     168.883
  O      162.670     -37.908     169.949
  C      163.742     -38.523     167.895
  O      164.129     -39.728     168.551
  C      162.394     -38.571     167.171
  N      162.833     -42.993     164.767
  C      162.807     -42.709     166.127
  N      162.879     -43.771     166.963
  N      162.726     -41.502     166.617
  C      162.622     -40.540     165.654
  C      162.651     -40.694     164.290
  C      162.767     -42.032     163.762
  O      162.806     -42.341     162.569
  N      162.544     -39.480     163.650
  C      162.473     -38.594     164.632
  N      162.483     -39.196     165.872
  O      163.613     -32.560     166.809
  O      164.804     -32.019     169.007
  H      163.951     -40.473     167.930
  H      163.432     -31.609     166.914
  H      162.912     -43.945     164.449
  H      162.411     -37.531     164.506
  H      161.633     -39.123     167.737
  H      164.546     -38.230     167.204
  H      162.898     -44.728     166.649
  H      164.404     -36.981     169.304
  H      162.821     -43.596     167.960
  H      161.879     -35.961     168.702
  H      164.236     -35.734     166.766
  H      162.853     -34.668     166.759
  P      162.770     -37.156     171.364
  C      163.561     -39.277     172.645
  O      163.863     -37.957     172.222
  O      161.384     -37.521     172.083
  O      162.983     -35.681     171.270
  H      161.158     -36.838     172.741
  H      164.099     -39.991     172.007
  H      162.485     -39.486     172.595
  H      163.897     -39.400     173.679
  H      167.852     -34.173     167.002
  H      166.631     -35.074     167.868
  H      167.344     -33.652     168.591

 3  4  5  6  7  8  9  10  11  12  23  26  30  31 0
 6-311+G(2d,p)
 ****
 33  35  36  37  38 0
 6-311+G(2d,p)
 ****
 1  2  13  14  15  16  17  18  19  20  21  22  24  25 0
 3-21G
 ****
 27  28  29  32  34  39  40  41  42  43  44  45  46  47  48  49 0
 3-21G
 ****


