%nproc=1
%NoSave
%Mem=1900MB
#P OB98/GEN NMR

erre ene a

0 1
  C      -70.349     156.181     147.558
  O      -69.187     155.545     148.053
  P      -68.503     156.070     149.400
  C      -66.767     157.757     148.538
  O      -68.038     157.584     149.155
  C      -65.765     158.334     149.536
  O      -66.338     159.464     150.227
  C      -65.348     157.357     150.628
  O      -64.418     156.413     150.132
  C      -64.789     158.310     151.678
  O      -63.438     158.681     151.361
  C      -65.726     159.519     151.536
  N      -67.127     161.713     155.922
  C      -65.977     161.761     155.218
  N      -65.665     161.114     154.074
  C      -66.687     160.338     153.680
  C      -67.908     160.159     154.312
  C      -68.126     160.912     155.478
  N      -69.318     160.920     156.169
  N      -68.683     159.252     153.615
  C      -67.941     158.886     152.591
  N      -66.754     159.563     152.554
  O      -67.456     155.175     149.978
  O      -69.731     156.231     150.414
  H      -63.428     158.971     150.429
  H      -69.593     155.648     151.185
  H      -65.205     162.411     155.623
  H      -68.222     158.153     151.846
  H      -65.177     160.468     151.587
  H      -64.778     157.873     152.681
  H      -66.230     156.851     151.036
  H      -64.890     158.687     148.977
  H      -66.885     158.444     147.694
  H      -69.415     161.603     156.902
  H      -70.151     160.580     155.695
  H      -66.412     156.793     148.162
  P      -63.946     155.197     151.059
  C      -61.481     155.741     151.512
  O      -62.800     155.763     152.026
  O      -63.610     153.931     150.344
  O      -65.179     154.987     152.061
  H      -65.246     154.044     152.300
  H      -61.080     154.727     151.579
  H      -60.860     156.410     152.113
  H      -61.462     156.076     150.471
  H      -70.663     155.698     146.656
  H      -70.134     157.210     147.356
  H      -71.129     156.116     148.287

 3  4  5  6  7  8  9  10  11  12  22  25  29  30  31  32 0
 6-311+G(2d,p)
 ****
 33  36  37 0
 6-311+G(2d,p)
 ****
 1  2  13  14  15  16  17  18  19  20  21  23  24  26 0
 3-21G
 ****
 27  28  34  35  38  39  40  41  42  43  44  45  46  47  48 0
 3-21G
 ****


