%nproc=1
%NoSave
%Mem=1900MB
#P OB98/GEN NMR

erre ene a

0 1
  C      655.962      22.945    -317.131
  O      654.960      23.282    -318.109
  P      653.448      22.772    -317.890
  C      652.505      25.062    -317.051
  O      652.754      23.692    -316.776
  C      650.997      25.323    -317.114
  O      650.379      25.069    -315.832
  C      650.620      26.758    -317.456
  O      650.783      27.039    -318.837
  C      649.173      26.812    -316.993
  O      648.293      26.268    -317.991
  C      649.206      25.901    -315.749
  N      649.174      26.658    -314.497
  C      648.045      27.437    -314.272
  O      647.130      27.550    -315.090
  N      648.018      28.117    -313.086
  C      649.013      28.146    -312.150
  O      648.933      28.790    -311.113
  C      650.215      27.370    -312.481
  C      650.243      26.678    -313.624
  O      653.673      21.399    -317.092
  O      652.658      22.534    -319.133
  H      648.446      26.782    -318.807
  H      652.938      20.789    -317.275
  H      647.192      28.665    -312.885
  H      651.041      27.382    -311.774
  H      651.121      26.099    -313.880
  H      648.350      25.215    -315.757
  H      648.833      27.831    -316.785
  H      651.215      27.455    -316.851
  H      650.561      24.628    -317.842
  H      652.956      25.329    -318.010
  H      652.971      25.672    -316.262
  P      651.735      28.277    -319.221
  C      653.307      26.760    -320.654
  O      653.159      27.623    -319.551
  O      651.915      28.968    -317.787
  O      651.147      29.161    -320.268
  H      651.919      28.318    -317.060
  H      652.640      27.037    -321.480
  H      653.082      25.735    -320.343
  H      654.341      26.805    -321.007
  H      656.903      23.359    -317.428
  H      656.047      21.881    -317.059
  H      655.680      23.345    -316.179

 3  4  5  6  7  8  9  10  11  12  13  23  28  29  30  31  32 0
 6-311+G(2d,p)
 ****
 33  34 0
 6-311+G(2d,p)
 ****
 1  2  14  15  16  17  18  19  20  21  22  24  25  26 0
 3-21G
 ****
 27  35  36  37  38  39  40  41  42  43  44  45 0
 3-21G
 ****


