%nproc=1
%NoSave
%Mem=1900MB
#P OB98/GEN NMR

erre ene a

0 1
  C     -133.142    -241.408    -162.642
  O     -132.327    -241.129    -163.761
  H     -134.182    -241.473    -162.972
  H     -133.054    -240.611    -161.900
  H     -132.851    -242.365    -162.196
  P     -130.756    -240.935    -163.484
  C     -129.826    -241.490    -165.845
  O     -130.097    -240.484    -164.877
  C     -129.172    -240.856    -167.069
  O     -130.071    -239.896    -167.666
  C     -127.896    -240.079    -166.762
  O     -126.779    -240.933    -166.586
  C     -127.785    -239.207    -168.000
  O     -127.150    -239.909    -169.083
  C     -129.264    -238.903    -168.326
  N     -129.639    -237.544    -167.950
  C     -129.704    -236.622    -168.991
  O     -129.466    -236.916    -170.164
  N     -130.024    -235.343    -168.635
  C     -130.236    -234.893    -167.367
  O     -130.445    -233.714    -167.104
  C     -130.166    -235.913    -166.306
  C     -129.868    -237.171    -166.638
  O     -130.237    -242.437    -163.281
  O     -130.422    -240.061    -162.322
  H     -130.102    -242.614    -162.333
  H     -126.236    -240.092    -168.795
  H     -130.065    -234.658    -169.374
  H     -130.337    -235.587    -165.286
  H     -129.791    -237.935    -165.874
  H     -129.447    -239.015    -169.404
  H     -127.189    -238.315    -167.811
  H     -128.045    -239.434    -165.888
  H     -128.973    -241.644    -167.807
  H     -130.762    -241.966    -166.146
  H     -129.169    -242.247    -165.400
  P     -125.857    -240.723    -165.291
  C     -124.864    -243.156    -165.440
  O     -124.632    -241.760    -165.428
  O     -126.772    -241.356    -164.147
  O     -125.448    -239.306    -165.061
  H     -127.284    -242.123    -164.450
  H     -123.932    -243.672    -165.538
  H     -125.498    -243.405    -166.265
  H     -125.338    -243.447    -164.526

 6  7  8  9  10  11  12  13  14  15  16  27  31  32  33  34  35 0
 6-311+G(2d,p)
 ****
 36  37 0
 6-311+G(2d,p)
 ****
 1  2  3  4  5  17  18  19  20  21  22  23  24  25 0
 3-21G
 ****
 26  28  29  30  38  39  40  41  42  43  44  45 0
 3-21G
 ****


