%nproc=1
%NoSave
%Mem=1900MB
#P OB98/GEN NMR

erre ene a

0 1
  C      199.140     255.553      43.874
  O      198.037     255.351      44.732
  H      198.972     256.465      43.294
  H      199.238     254.712      43.182
  H      200.060     255.666      44.453
  P      198.105     254.078      45.706
  C      196.310     252.968      44.186
  O      197.558     252.832      44.856
  C      195.507     251.678      44.322
  O      196.287     250.570      43.817
  C      195.154     251.310      45.759
  O      194.045     252.051      46.241
  C      194.873     249.819      45.622
  O      193.536     249.573      45.170
  C      195.878     249.391      44.543
  N      197.638     244.951      46.322
  C      196.458     245.295      45.763
  N      196.073     246.503      45.296
  C      197.061     247.402      45.444
  C      198.311     247.199      46.002
  C      198.595     245.900      46.455
  N      199.779     245.558      47.058
  N      199.029     248.380      46.019
  C      198.231     249.272      45.474
  N      197.035     248.727      45.107
  O      196.929     254.367      46.755
  O      199.418     253.863      46.382
  H      193.447     248.606      45.073
  H      197.297     254.801      47.548
  H      195.724     244.497      45.682
  H      198.470     250.322      45.334
  H      195.432     248.702      43.814
  H      194.995     249.304      46.576
  H      196.025     251.448      46.412
  H      194.601     251.765      43.710
  H      196.490     253.170      43.124
  H      195.764     253.811      44.622
  H      199.907     244.611      47.379
  H      200.457     246.284      47.258
  P      194.002     252.440      47.793
  C      192.742     250.212      48.242
  O      193.789     251.087      48.627
  O      192.602     253.203      47.942
  O      195.146     253.279      48.256
  H      192.741     254.170      47.948
  H      192.731     249.362      48.891
  H      192.899     249.889      47.234
  H      191.805     250.725      48.310

 6  7  8  9  10  11  12  13  14  15  25  28  32  33  34  35 0
 6-311+G(2d,p)
 ****
 36  37  40 0
 6-311+G(2d,p)
 ****
 1  2  3  4  5  16  17  18  19  20  21  22  23  24 0
 3-21G
 ****
 26  27  29  30  31  38  39 41  42  43  44  45  46  47  48 0
 3-21G
 ****


