%nproc=1
%NoSave
%Mem=1900MB
#P OB98/GEN NMR

erre ene a

0 1
  C       75.294      13.483    -196.687
  O       74.995      14.436    -195.658
  P       76.109      15.350    -194.952
  C       76.611      13.757    -192.986
  O       77.128      14.415    -194.135
  C       77.523      12.614    -192.525
  O       77.089      12.120    -191.222
  C       77.564      11.408    -193.482
  O       78.916      10.938    -193.491
  C       76.635      10.424    -192.787
  O       76.799       9.085    -193.216
  C       77.027      10.681    -191.327
  N       76.121      10.127    -190.329
  C       76.561       9.021    -189.591
  O       77.649       8.493    -189.815
  N       75.737       8.513    -188.614
  C       74.579       9.052    -188.394
  N       73.819       8.507    -187.406
  C       74.069      10.205    -189.157
  C       74.883      10.686    -190.095
  O       75.539      16.461    -194.129
  O       77.001      15.936    -196.146
  H       77.279      16.844    -195.923
  H       76.117       8.542    -192.779
  H       73.099      10.628    -188.937
  H       74.592      11.553    -190.682
  H       78.041      10.303    -191.152
  H       75.599      10.716    -192.990
  H       77.268      11.653    -194.508
  H       78.532      13.022    -192.385
  H       74.208       7.724    -186.896
  H       75.629      13.346    -193.234
  H       72.907       8.852    -187.145
  H       76.484      14.491    -192.182
  P       79.855      11.250    -194.753
  C       79.585       8.897    -195.841
  O       79.392      10.292    -195.952
  O       81.240      10.568    -194.308
  O       80.072      12.692    -195.075
  H       81.975      11.010    -194.769
  H       78.677       8.390    -196.177
  H       79.799       8.589    -194.813
  H       80.418       8.600    -196.484
  H       74.392      12.999    -196.998
  H       75.978      12.753    -196.309
  H       75.735      13.986    -197.522

 3  4  5  6  7  8  9  10  11  12  13  24  27  28  29  30  32 0
 6-311+G(2d,p)
 ****
 34  35 0
 6-311+G(2d,p)
 ****
 1  2  14  15  16  17  18  19  20  21  22  23  25  26 0
 3-21G
 ****
 31  33  36  37  38  39  40  41  42  43  44  45  46 0
 3-21G
 ****


