%nproc=1
%NoSave
%Mem=1900MB
#P OB98/GEN NMR

erre ene a

0 1
  C      475.142    -124.986     120.829
  O      475.207    -123.690     121.390
  P      474.121    -122.576     121.002
  C      473.181    -121.653     118.784
  O      474.171    -122.477     119.399
  C      473.835    -120.564     117.933
  O      474.220    -121.087     116.644
  C      472.925    -119.375     117.644
  O      472.839    -118.530     118.774
  C      473.629    -118.758     116.439
  O      474.725    -117.920     116.850
  C      474.152    -120.008     115.692
  N      473.324    -120.352     114.541
  C      473.578    -119.629     113.373
  O      474.433    -118.739     113.359
  N      472.823    -119.896     112.253
  C      471.886    -120.789     112.313
  N      471.163    -121.002     111.176
  C      471.567    -121.548     113.538
  C      472.315    -121.282     114.602
  O      474.245    -121.279     121.728
  O      472.726    -123.320     121.271
  H      475.185    -117.654     116.025
  H      472.538    -123.396     122.238
  H      470.764    -122.275     113.539
  H      472.145    -121.790     115.543
  H      475.181    -119.838     115.342
  H      472.955    -118.138     115.844
  H      471.936    -119.730     117.340
  H      474.747    -120.229     118.451
  H      471.396    -120.436     110.368
  H      472.584    -121.186     119.573
  H      470.386    -121.645     111.122
  H      472.515    -122.277     118.172
  P      471.598    -117.523     118.922
  C      470.468    -115.697     117.517
  O      471.551    -116.606     117.616
  O      471.519    -116.792     120.223
  O      470.323    -118.479     118.738
  H      469.660    -118.259     119.413
  H      470.721    -114.927     116.783
  H      470.272    -115.223     118.487
  H      469.574    -116.230     117.183
  H      475.947    -125.580     121.208
  H      475.220    -124.918     119.764
  H      474.210    -125.441     121.090

 3  4  5  6  7  8  9  10  11  12  13  23  27  28  29  30  32 0
 6-311+G(2d,p)
 ****
 34  35 0
 6-311+G(2d,p)
 ****
 1  2  14  15  16  17  18  19  20  21  22  24  25  26 0
 3-21G
 ****
 31  33  36  37  38  39  40  41  42  43  44  45  46 0
 3-21G
 ****


