%nproc=1
%NoSave
%Mem=1900MB
#P OB98/GEN NMR

erre ene a

0 1
  C     -571.190     234.906    -171.636
  O     -572.440     234.660    -171.019
  H     -571.207     235.904    -172.073
  H     -571.018     234.174    -172.432
  H     -570.384     234.852    -170.896
  P     -572.568     233.308    -170.157
  C     -574.272     233.650    -168.188
  O     -572.947     233.781    -168.670
  C     -574.965     235.013    -168.128
  O     -574.974     235.585    -169.463
  C     -576.416     234.949    -167.638
  O     -576.682     236.125    -166.872
  C     -577.222     234.992    -168.925
  O     -578.552     235.462    -168.707
  C     -576.347     235.900    -169.802
  N     -576.606     235.710    -171.230
  C     -577.705     236.391    -171.758
  O     -578.409     237.093    -171.030
  N     -578.012     236.231    -173.084
  C     -577.315     235.406    -173.809
  N     -577.675     235.267    -175.117
  C     -576.171     234.633    -173.282
  C     -575.872     234.839    -171.998
  O     -571.037     232.855    -170.032
  O     -573.470     232.282    -170.750
  H     -578.969     234.900    -168.020
  H     -570.433     233.587    -169.819
  H     -575.626     233.951    -173.920
  H     -575.040     234.326    -171.533
  H     -576.511     236.951    -169.550
  H     -577.285     233.985    -169.362
  H     -576.619     234.066    -167.036
  H     -574.366     235.681    -167.502
  H     -578.482     235.802    -175.428
  H     -574.269     233.203    -167.184
  H     -577.248     234.621    -175.750
  H     -574.814     232.972    -168.857
  P     -577.032     235.990    -165.318
  C     -575.010     237.210    -164.257
  O     -575.671     235.968    -164.465
  O     -578.021     234.933    -164.964
  O     -577.629     237.446    -164.966
  H     -578.391     237.319    -164.374
  H     -574.124     237.050    -163.678
  H     -575.662     237.878    -163.734
  H     -574.746     237.636    -165.202

 6  7  8  9  10  11  12  13  14  15  16  26  30  31  32  33  35 0
 6-311+G(2d,p)
 ****
 37  38 0
 6-311+G(2d,p)
 ****
 1  2  3  4  5  17  18  19  20  21  22  23  24  25 0
 3-21G
 ****
 27  28  29  34  36  39  40  41  42  43  44  45  46 0
 3-21G
 ****


