%nproc=1
%NoSave
%Mem=1900MB
#P OB98/GEN NMR

erre ene a

0 1
  C     -349.320     201.022      17.355
  O     -349.287     202.182      18.173
  P     -348.763     203.588      17.608
  C     -351.077     204.685      17.448
  O     -349.936     204.234      16.722
  C     -351.362     206.166      17.179
  O     -351.616     206.354      15.754
  C     -352.577     206.721      17.941
  O     -352.241     208.066      18.329
  C     -353.673     206.726      16.899
  O     -354.716     207.641      17.209
  C     -352.870     207.062      15.640
  N     -353.573     206.693      14.415
  C     -354.543     207.586      13.946
  O     -354.859     208.570      14.621
  N     -355.127     207.346      12.725
  C     -354.909     206.207      12.131
  N     -355.458     206.029      10.894
  C     -354.086     205.128      12.719
  C     -353.421     205.457      13.832
  O     -347.432     203.538      16.934
  O     -348.714     204.537      18.898
  H     -347.824     204.941      18.964
  H     -355.372     207.636      16.475
  H     -354.034     204.160      12.253
  H     -352.773     204.740      14.330
  H     -352.634     208.130      15.598
  H     -354.112     205.721      16.819
  H     -352.814     206.137      18.843
  H     -350.458     206.743      17.423
  H     -355.983     206.803      10.500
  H     -350.874     204.551      18.516
  H     -355.095     205.339      10.234
  H     -351.945     204.074      17.191
  P     -352.817     208.620      19.727
  C     -350.667     208.481      21.176
  O     -351.958     207.969      20.914
  O     -354.208     207.814      19.838
  O     -353.085     210.088      19.810
  H     -354.831     208.322      20.403
  H     -350.199     207.874      21.962
  H     -350.734     209.522      21.519
  H     -350.042     208.436      20.275
  H     -349.700     200.197      17.921
  H     -348.330     200.796      17.016
  H     -349.954     201.198      16.511

 3  4  5  6  7  8  9  10  11  12  13  24  27  28  29  30  32 0
 6-311+G(2d,p)
 ****
 34  35 0
 6-311+G(2d,p)
 ****
 1  2  14  15  16  17  18  19  20  21  22  23  25  26 0
 3-21G
 ****
 31  33  36  37  38  39  40  41  42  43  44  45  46 0
 3-21G
 ****


