%nproc=1
%NoSave
%Mem=1900MB
#P OB98/GEN NMR

erre ene a

0 1
  C      340.021    -734.947    -268.788
  O      341.314    -735.541    -268.727
  P      342.148    -735.672    -270.097
  C      344.205    -735.773    -268.452
  O      343.607    -736.189    -269.675
  C      345.592    -736.401    -268.313
  O      346.414    -736.054    -269.443
  C      346.377    -735.938    -267.085
  O      345.913    -736.568    -265.899
  C      347.782    -736.306    -267.481
  O      348.040    -737.711    -267.250
  C      347.794    -736.003    -268.991
  N      348.404    -734.718    -269.334
  C      349.737    -734.765    -269.739
  O      350.385    -735.809    -269.824
  N      350.309    -733.554    -270.034
  C      349.722    -732.330    -269.903
  O      350.295    -731.276    -270.141
  C      348.333    -732.348    -269.437
  C      347.746    -733.515    -269.176
  O      342.349    -734.124    -270.465
  O      341.445    -736.473    -271.136
  H      342.350    -733.561    -269.667
  H      347.711    -737.906    -266.347
  H      351.273    -733.569    -270.348
  H      347.828    -731.391    -269.311
  H      346.714    -733.550    -268.826
  H      348.312    -736.802    -269.548
  H      348.554    -735.748    -266.908
  H      346.290    -734.857    -266.970
  H      345.475    -737.499    -268.296
  H      343.575    -736.087    -267.617
  H      344.277    -734.680    -268.453
  P      346.033    -735.711    -264.533
  C      344.130    -736.991    -263.252
  O      345.514    -736.664    -263.353
  O      344.862    -734.634    -264.735
  O      347.388    -735.105    -264.326
  H      344.042    -735.037    -265.114
  H      344.033    -737.889    -262.648
  H      343.699    -737.173    -264.245
  H      343.588    -736.161    -262.773
  H      339.591    -734.928    -267.809
  H      339.396    -735.519    -269.441
  H      340.105    -733.947    -269.160

 3  4  5  6  7  8  9  10  11  12  13  24  28  29  30  31  32 0
 6-311+G(2d,p)
 ****
 33  34 0
 6-311+G(2d,p)
 ****
 1  2  14  15  16  17  18  19  20  21  22  23  25  26  27 0
 3-21G
 ****
 35  36  37  38  39  40  41  42  43  44  45 0
 3-21G
 ****


