%nproc=1
%NoSave
%Mem=1900MB
#P OB98/GEN NMR

erre ene a

0 1
  C      390.563     -93.361      86.277
  O      391.193     -92.624      85.248
  H      391.176     -93.292      87.179
  H      390.476     -94.414      85.994
  H      389.572     -92.948      86.494
  P      390.490     -92.571      83.805
  C      391.725     -93.949      81.986
  O      390.875     -93.980      83.127
  C      393.126     -93.498      82.383
  O      393.597     -94.212      83.552
  C      394.201     -93.747      81.329
  O      394.140     -92.860      80.226
  C      395.449     -93.531      82.173
  O      395.644     -92.120      82.390
  C      395.050     -94.252      83.481
  N      395.529     -95.632      83.532
  C      396.901     -95.817      83.761
  O      397.644     -94.850      83.903
  N      397.398     -97.100      83.795
  C      396.604     -98.107      83.587
  N      397.158     -99.356      83.626
  C      395.161     -97.957      83.321
  C      394.695     -96.710      83.308
  O      390.783     -91.358      82.979
  O      388.930     -92.775      84.108
  H      396.462     -92.021      82.916
  H      388.449     -92.740      83.245
  H      394.547     -98.829      83.127
  H      393.644     -96.521      83.116
  H      395.435     -93.711      84.357
  H      396.357     -93.913      81.705
  H      394.186     -94.793      80.995
  H      393.068     -92.435      82.652
  H      398.151     -99.426      83.811
  H      391.285     -93.265      81.251
  H      396.629    -100.189      83.402
  H      391.795     -94.945      81.548
  P      394.585     -93.447      78.794
  C      396.894     -92.655      77.848
  O      396.190     -93.446      78.795
  O      394.195     -92.269      77.785
  O      393.967     -94.759      78.418
  H      393.340     -92.455      77.348
  H      397.947     -92.776      77.995
  H      396.632     -91.626      77.978
  H      396.633     -92.967      76.858

 6  7  8  9  10  11  12  13  14  15  16  26  30  31  32  33  35 0
 6-311+G(2d,p)
 ****
 37  38 0
 6-311+G(2d,p)
 ****
 1  2  3  4  5  17  18  19  20  21  22  23  24  25 0
 3-21G
 ****
 27  28  29  34  36  39  40  41  42  43  44  45  46 0
 3-21G
 ****


