%nproc=1
%NoSave
%Mem=1900MB
#P OB98/GEN NMR

erre ene a

0 1
  C     -313.829      30.409      49.558
  O     -312.781      29.514      49.900
  P     -311.637      29.258      48.804
  C     -312.301      26.750      48.953
  O     -311.980      27.851      48.110
  C     -312.814      25.558      48.141
  O     -312.829      24.383      48.987
  C     -314.222      25.748      47.572
  O     -314.258      25.133      46.281
  C     -315.097      24.955      48.520
  O     -316.311      24.544      47.897
  C     -314.151      23.812      48.918
  N     -314.532      23.192      50.184
  C     -315.427      22.118      50.117
  O     -315.916      21.786      49.034
  N     -315.786      21.481      51.279
  C     -315.373      21.945      52.417
  N     -315.754      21.277      53.540
  C     -314.528      23.148      52.539
  C     -314.133      23.701      51.395
  O     -310.353      28.924      49.700
  O     -311.399      30.402      47.873
  H     -316.851      24.062      48.567
  H     -309.536      29.228      49.262
  H     -314.242      23.518      53.516
  H     -313.494      24.576      51.386
  H     -314.134      23.035      48.142
  H     -315.349      25.567      49.397
  H     -314.505      26.803      47.486
  H     -312.100      25.366      47.332
  H     -316.342      20.463      53.431
  H     -313.089      27.053      49.649
  H     -315.481      21.565      54.473
  H     -311.419      26.469      49.538
  P     -314.908      25.970      45.076
  C     -316.607      24.074      44.736
  O     -316.425      25.456      44.985
  O     -314.250      25.255      43.801
  O     -314.690      27.448      45.040
  H     -314.519      25.721      42.986
  H     -317.670      23.839      44.835
  H     -316.044      23.478      45.459
  H     -316.285      23.833      43.718
  H     -314.515      30.484      50.376
  H     -314.343      30.043      48.694
  H     -313.419      31.374      49.347

 3  4  5  6  7  8  9  10  11  12  13  21  23  27  28  29  30  32 0
 6-311+G(2d,p)
 ****
 34  35 0
 6-311+G(2d,p)
 ****
 1  2  14  15  16  17  18  19  20  22  24  25  26 0
 3-21G
 ****
 31  33  36  37  38  39  40  41  42  43  44  45  46 0
 3-21G
 ****


