%nproc=1
%NoSave
%Mem=1900MB
#P OB98/GEN NMR

erre ene a

0 1
  C     -702.200     -81.461    -155.640
  O     -701.705     -80.197    -155.239
  H     -702.461     -81.415    -156.700
  H     -703.097     -81.707    -155.066
  H     -701.439     -82.233    -155.492
  P     -701.103     -80.091    -153.759
  C     -702.783     -78.123    -153.309
  O     -701.456     -78.623    -153.208
  C     -702.779     -76.599    -153.203
  O     -702.438     -76.172    -151.874
  C     -701.735     -75.922    -154.083
  O     -702.060     -75.980    -155.454
  C     -701.754     -74.521    -153.499
  O     -702.875     -73.771    -153.987
  C     -701.910     -74.819    -151.987
  N     -700.665     -74.661    -151.252
  C     -700.143     -73.362    -151.212
  O     -700.736     -72.439    -151.768
  N     -698.945     -73.156    -150.574
  C     -698.334     -74.150    -150.002
  N     -697.150     -73.879    -149.393
  C     -698.863     -75.526    -149.996
  C     -700.013     -75.711    -150.642
  O     -699.530     -79.997    -154.029
  O     -701.508     -81.186    -152.829
  H     -702.768     -72.862    -153.648
  H     -699.279     -79.297    -154.649
  H     -698.326     -76.321    -149.501
  H     -700.469     -76.689    -150.687
  H     -702.659     -74.151    -151.537
  H     -700.854     -73.959    -153.760
  H     -700.744     -76.357    -153.889
  H     -703.790     -76.239    -153.432
  H     -696.808     -72.923    -149.434
  H     -703.427     -78.563    -152.541
  H     -696.572     -74.572    -148.948
  H     -703.178     -78.430    -154.286
  P     -700.910     -76.214    -156.554
  C     -702.737     -75.490    -158.219
  O     -701.668     -76.391    -157.962
  O     -699.933     -77.293    -156.235
  O     -700.250     -74.762    -156.710
  H     -700.865     -74.062    -157.001
  H     -703.161     -75.704    -159.178
  H     -702.368     -74.486    -158.208
  H     -703.487     -75.602    -157.465

 6  7  8  9  10  11  12  13  14  15  16  26  30  31  32  33  35 0
 6-311+G(2d,p)
 ****
 37  38 0
 6-311+G(2d,p)
 ****
 1  2  3  4  5  17  18  19  20  21  22  23  24  25 0
 3-21G
 ****
 27  28  29  34  36  39  40  41  42  43  44  45  46 0
 3-21G
 ****


