%nproc=1
%NoSave
%Mem=1900MB
#P OB98/GEN NMR

erre ene a

0 1
  C     -101.312      57.804     147.558
  O     -102.095      56.980     146.709
  P     -101.712      55.438     146.465
  C      -99.575      54.215     145.720
  O     -100.231      55.471     145.845
  C      -98.502      54.287     144.634
  O      -99.159      54.354     143.347
  C      -97.586      55.514     144.683
  O      -96.481      55.392     145.565
  C      -97.079      55.540     143.242
  O      -96.037      54.557     143.073
  C      -98.325      55.134     142.450
  N      -99.158      58.203     138.432
  C      -98.363      57.115     138.594
  N      -98.181      56.364     139.704
  C      -98.963      56.803     140.707
  C      -99.825      57.891     140.687
  C      -99.910      58.610     139.480
  N     -100.739      59.702     139.312
  N     -100.442      58.048     141.917
  C      -99.967      57.061     142.651
  N      -99.076      56.279     141.965
  O     -102.723      54.663     145.695
  O     -101.470      54.855     147.935
  H      -95.332      54.778     143.712
  H     -101.491      53.876     147.918
  H      -97.791      56.815     137.719
  H     -100.232      56.878     143.685
  H      -98.088      54.496     141.587
  H      -96.654      56.511     142.960
  H      -98.155      56.433     144.880
  H      -97.912      53.361     144.665
  H     -100.318      53.462     145.439
  H     -100.830      60.074     138.377
  H     -101.414      59.904     140.035
  H      -99.141      53.927     146.685
  P      -95.973      56.734     146.296
  C      -95.129      59.043     145.397
  O      -95.463      57.700     145.120
  O      -95.009      56.509     147.411
  O      -97.348      57.421     146.768
  H      -97.919      57.735     146.047
  H      -94.656      59.477     144.508
  H      -94.428      59.109     146.228
  H      -96.034      59.616     145.625
  H     -101.732      58.788     147.586
  H     -100.311      57.854     147.183
  H     -101.303      57.392     148.545

 3  4  5  6  7  8  9  10  11  12  22  25  29  30  31  32 0
 6-311+G(2d,p)
 ****
 33  36  37 0
 6-311+G(2d,p)
 ****
 1  2  13  14  15  16  17  18  19  20  21  23  24  26 0
 3-21G
 ****
 27  28  34  35  38  39  40  41  42  43  44  45  46  47  48 0
 3-21G
 ****


