%nproc=1
%NoSave
%Mem=1900MB
#P OB98/GEN NMR

erre ene a

0 1
  C      564.733    -898.050     769.627
  O      566.032    -897.520     769.441
  P      566.488    -896.290     770.386
  C      568.302    -897.590     771.735
  O      567.038    -896.970     771.746
  C      569.375    -896.630     772.243
  O      569.097    -896.230     773.606
  C      570.782    -897.200     772.239
  O      571.361    -897.110     770.951
  C      571.477    -896.320     773.257
  O      571.872    -895.050     772.681
  C      570.359    -896.120     774.301
  N      572.469    -897.120     778.795
  C      572.798    -896.140     777.861
  N      573.792    -895.280     778.185
  N      572.168    -896.020     776.699
  C      571.230    -896.970     776.523
  C      570.831    -898.000     777.352
  C      571.464    -898.080     778.641
  O      571.159    -898.850     779.538
  N      569.805    -898.720     776.795
  C      569.608    -898.160     775.632
  N      570.403    -897.060     775.409
  O      565.071    -895.660     770.827
  O      567.390    -895.300     769.769
  H      572.255    -894.500     773.370
  H      564.868    -894.880     770.277
  H      572.946    -897.170     779.674
  H      568.867    -898.470     774.901
  H      570.386    -895.110     774.751
  H      572.392    -896.770     773.659
  H      574.309    -895.360     779.044
  H      570.770    -898.240     772.597
  H      574.011    -894.570     777.509
  H      569.325    -895.720     771.623
  H      568.548    -897.910     770.705
  H      568.263    -898.480     772.364
  P      572.061    -898.420     770.342
  C      570.576    -898.280     768.201
  O      571.052    -899.070     769.279
  O      572.029    -899.450     771.579
  O      573.445    -898.210     769.827
  H      572.853    -900.000     771.553
  H      570.360    -898.950     767.357
  H      571.321    -897.530     767.914
  H      569.655    -897.780     768.499
  H      564.573    -898.852     768.937
  H      564.007    -897.283     769.457
  H      564.637    -898.416     770.628

 3  4  5  6  7  8  9  10  11  12  23  26  30  31 0
 6-311+G(2d,p)
 ****
 33  35  36  37  38 0
 6-311+G(2d,p)
 ****
 1  2  13  14  15  16  17  18  19  20  21  22  24  25 0
 3-21G
 ****
 27  28  29  32  34  39  40  41  42  43  44  45  46  47  48  49 0
 3-21G
 ****


