%nproc=1
%NoSave
%Mem=1900MB
#P OB98/GEN NMR

erre ene a

0 1
  C      155.820    -562.421     -25.361
  O      155.633    -561.854     -24.069
  P      156.924    -561.737     -23.119
  C      156.844    -561.792     -20.510
  O      156.469    -561.117     -21.712
  C      156.183    -561.117     -19.304
  O      156.528    -559.721     -19.231
  C      154.669    -561.155     -19.346
  O      154.183    -562.434     -18.973
  C      154.291    -560.045     -18.371
  O      154.154    -560.531     -17.030
  C      155.488    -559.062     -18.482
  N      155.116    -557.794     -19.094
  C      154.709    -556.788     -18.204
  O      154.647    -557.005     -17.001
  N      154.350    -555.564     -18.729
  C      154.377    -555.376     -20.007
  N      154.008    -554.139     -20.465
  C      154.775    -556.419     -20.981
  C      155.124    -557.588     -20.451
  O      157.768    -560.548     -23.790
  O      157.726    -562.998     -23.029
  H      154.065    -559.730     -16.462
  H      158.723    -560.702     -23.674
  H      154.777    -556.217     -22.038
  H      155.436    -558.415     -21.094
  H      155.897    -558.854     -17.483
  H      153.334    -559.586     -18.642
  H      154.314    -560.899     -20.363
  H      156.550    -561.615     -18.390
  H      153.735    -553.451     -19.777
  H      157.931    -561.779     -20.396
  H      153.987    -553.894     -21.449
  H      156.545    -562.840     -20.586
  P      153.444    -563.315     -20.081
  C      151.794    -564.710     -18.694
  O      153.057    -564.681     -19.342
  O      154.661    -563.775     -21.018
  O      152.360    -562.652     -20.869
  H      154.326    -564.246     -21.802
  H      151.573    -565.752     -18.414
  H      151.009    -564.357     -19.365
  H      151.828    -564.108     -17.781
  H      154.885    -562.438     -25.882
  H      156.191    -563.420     -25.262
  H      156.524    -561.832     -25.911

 3  4  5  6  7  8  9  10  11  12  13  21  23  27  28  29  30  32 0
 6-311+G(2d,p)
 ****
 34  35 0
 6-311+G(2d,p)
 ****
 1  2  14  15  16  17  18  19  20  22  24  25  26 0
 3-21G
 ****
 31  33  36  37  38  39  40  41  42  43  44  45  46 0
 3-21G
 ****


