%nproc=1
%NoSave
%Mem=1900MB
#P OB98/GEN NMR

erre ene a

0 1
  C      647.003     332.759    -388.305
  O      646.734     331.393    -388.642
  P      646.220     331.048    -390.115
  C      644.557     329.411    -389.031
  O      645.477     329.623    -390.097
  C      644.384     327.909    -388.758
  O      643.786     327.254    -389.917
  C      645.714     327.192    -388.484
  O      645.518     326.118    -387.549
  C      646.063     326.589    -389.832
  O      646.991     325.505    -389.696
  C      644.671     326.187    -390.340
  N      643.397     322.963    -394.110
  C      643.255     322.868    -392.764
  N      643.599     323.775    -391.828
  C      644.135     324.879    -392.391
  C      644.321     325.122    -393.747
  C      643.941     324.087    -394.631
  N      644.104     324.173    -395.996
  N      644.888     326.377    -393.953
  C      645.079     326.852    -392.744
  N      644.606     326.009    -391.774
  O      647.236     331.212    -391.205
  O      645.003     332.071    -390.333
  H      647.837     325.878    -389.407
  H      645.039     332.449    -391.229
  H      642.817     321.951    -392.391
  H      645.557     327.794    -392.512
  H      644.315     325.253    -389.866
  H      646.515     327.347    -390.476
  H      646.510     327.854    -388.111
  H      643.689     327.767    -387.928
  H      643.590     329.868    -389.279
  H      643.913     323.338    -396.534
  H      644.648     324.938    -396.382
  H      644.911     329.935    -388.138
  P      645.543     326.527    -385.995
  C      646.796     324.254    -385.610
  O      645.804     325.162    -385.184
  O      644.348     327.323    -385.569
  O      646.929     327.330    -385.877
  H      647.702     326.872    -386.242
  H      646.896     323.470    -384.863
  H      647.754     324.752    -385.743
  H      646.486     323.793    -386.561
  H      647.336     332.817    -387.290
  H      646.110     333.337    -388.421
  H      647.764     333.143    -388.952

 3  4  5  6  7  8  9  10  11  12  22  25  29  30  31  32 0
 6-311+G(2d,p)
 ****
 33  36  37 0
 6-311+G(2d,p)
 ****
 1  2  13  14  15  16  17  18  19  20  21  23  24  26 0
 3-21G
 ****
 27  28  34  35  38  39  40  41  42  43  44  45  46  47  48 0
 3-21G
 ****


