%nproc=1
%NoSave
%Mem=1900MB
#P OB98/GEN NMR

erre ene a

0 1
  C     -109.594     147.710      76.891
  O     -109.670     146.312      77.202
  P     -110.462     145.247      76.300
  C     -108.478     144.757      74.710
  O     -109.389     144.232      75.669
  C     -107.721     143.628      74.006
  O     -107.000     144.145      72.862
  C     -106.651     142.943      74.842
  O     -107.199     142.092      75.831
  C     -105.848     142.218      73.763
  O     -106.443     140.956      73.429
  C     -105.958     143.184      72.567
  N     -104.705     143.850      72.258
  C     -104.270     143.785      70.931
  O     -104.893     143.121      70.104
  N     -103.130     144.465      70.581
  C     -102.429     145.063      71.493
  N     -101.319     145.734      71.084
  C     -102.780     145.039      72.925
  C     -103.920     144.424      73.233
  O     -111.368     145.867      75.287
  O     -111.284     144.344      77.334
  H     -112.072     143.977      76.892
  H     -106.599     140.486      74.271
  H     -102.146     145.515      73.658
  H     -104.261     144.372      74.262
  H     -106.308     142.645      71.679
  H     -104.820     142.017      74.080
  H     -106.018     143.705      75.315
  H     -108.457     142.894      73.652
  H     -101.112     145.739      70.093
  H     -107.756     145.395      75.232
  H     -100.718     146.252      71.709
  H     -109.027     145.370      73.989
  P     -106.473     142.076      77.260
  C     -107.859     143.939      78.419
  O     -107.536     142.563      78.354
  O     -105.433     143.292      77.168
  O     -105.778     140.795      77.588
  H     -104.600     143.046      77.611
  H     -108.873     144.042      78.815
  H     -107.812     144.413      77.435
  H     -107.164     144.439      79.097
  H     -109.014     148.210      77.638
  H     -110.580     148.125      76.869
  H     -109.131     147.838      75.935

 3  4  5  6  7  8  9  10  11  12  13  24  27  28  29  30  32 0
 6-311+G(2d,p)
 ****
 34  35 0
 6-311+G(2d,p)
 ****
 1  2  14  15  16  17  18  19  20  21  22  23  25  26 0
 3-21G
 ****
 31  33  36  37  38  39  40  41  42  43  44  45  46 0
 3-21G
 ****


