%nproc=1
%NoSave
%Mem=1900MB
#P OB98/GEN NMR

erre ene a

0 1
  C      -32.834    -107.048    -126.860
  O      -32.940    -105.827    -127.558
  H      -31.819    -107.139    -126.465
  H      -33.021    -107.881    -127.544
  H      -33.539    -107.092    -126.027
  P      -34.395    -105.274    -127.928
  C      -33.583    -102.866    -128.378
  O      -34.192    -104.029    -128.919
  C      -33.157    -101.898    -129.488
  O      -32.090    -102.492    -130.266
  C      -34.321    -101.643    -130.451
  O      -34.243    -100.356    -131.060
  C      -34.118    -102.710    -131.514
  O      -34.753    -102.394    -132.750
  C      -32.593    -102.762    -131.588
  N      -29.806    -105.195    -135.090
  C      -30.194    -103.871    -135.049
  N      -29.807    -103.098    -136.088
  N      -30.910    -103.357    -134.084
  C      -31.288    -104.262    -133.151
  C      -30.988    -105.604    -133.098
  C      -30.162    -106.153    -134.150
  O      -29.803    -107.324    -134.247
  N      -31.567    -106.205    -132.007
  C      -32.221    -105.232    -131.406
  N      -32.072    -104.030    -132.055
  O      -34.888    -104.565    -126.578
  O      -35.380    -106.301    -128.398
  H      -34.534    -103.104    -133.382
  H      -35.860    -104.540    -126.543
  H      -29.242    -105.537    -135.848
  H      -32.810    -105.341    -130.503
  H      -32.211    -101.981    -132.259
  H      -34.560    -103.643    -131.153
  H      -29.411    -103.487    -136.931
  H      -35.289    -101.745    -129.960
  H      -30.320    -102.223    -136.222
  H      -32.759    -100.975    -129.053
  H      -32.706    -103.193    -127.810
  H      -34.263    -102.374    -127.678
  P      -35.532     -99.410    -130.959
  C      -34.275     -97.483    -129.698
  O      -35.019     -97.897    -130.830
  O      -36.133     -99.748    -129.517
  O      -36.526     -99.632    -132.049
  H      -36.936    -100.296    -129.606
  H      -34.026     -96.447    -129.795
  H      -33.377     -98.061    -129.630
  H      -34.860     -97.628    -128.814

 6  7  8  9  10  11  12  13  14  15  26  29  33  34 0
 6-311+G(2d,p)
 ****
 36  38  39  40  41 0
 6-311+G(2d,p)
 ****
 1  2  3  4  5  16  17  18  19  20  21  22  23  24  25 0
 3-21G
 ****
 27  28  30  31  32  35  37  42  43  44  45  46  47 0
 3-21G
 ****
 48  49 0
 3-21G
 ****


