%nproc=1
%NoSave
%Mem=1900MB
#P OB98/GEN NMR

erre ene a

0 1
  C       -4.218      54.046     100.309
  O       -5.361      53.217     100.250
  H       -3.357      53.481      99.943
  H       -4.026      54.352     101.340
  H       -4.358      54.925      99.677
  P       -6.734      53.837     100.799
  C       -6.557      52.228     102.831
  O       -6.764      53.559     102.379
  C       -6.769      52.161     104.339
  O       -6.441      50.839     104.824
  C       -5.887      53.114     105.133
  O       -6.372      54.444     105.107
  C       -5.958      52.488     106.516
  O       -7.133      52.910     107.225
  C       -6.017      50.979     106.195
  N       -4.743      50.313     106.445
  C       -4.624      49.682     107.679
  O       -5.521      49.675     108.522
  N       -3.418      49.089     107.934
  C       -2.333      49.098     107.108
  O       -1.256      48.609     107.426
  C       -2.521      49.767     105.809
  C       -3.697      50.343     105.545
  O       -7.841      52.839     100.215
  O       -6.990      55.254     100.408
  H       -8.283      53.246      99.447
  H       -7.001      52.643     108.156
  H       -3.309      48.637     108.827
  H       -1.682      49.786     105.127
  H       -3.852      50.860     104.603
  H       -6.781      50.488     106.811
  H       -5.102      52.769     107.128
  H       -4.852      53.061     104.774
  H       -7.830      52.351     104.549
  H       -5.533      51.919     102.600
  H       -7.252      51.563     102.308
  P       -5.318      55.641     104.939
  C       -5.160      55.903     107.549
  O       -4.495      55.718     106.313
  O       -6.284      56.914     104.991
  O       -4.479      55.535     103.712
  H       -7.032      56.799     105.601
  H       -4.441      55.927     108.341
  H       -5.842      55.095     107.711
  H       -5.700      56.827     107.529

 6  7  8  9  10  11  12  13  14  15  16  27  31  32  33  34  35 0
 6-311+G(2d,p)
 ****
 36  37 0
 6-311+G(2d,p)
 ****
 1  2  3  4  5  17  18  19  20  21  22  23  24  25 0
 3-21G
 ****
 26  28  29  30  38  39  40  41  42  43  44  45 0
 3-21G
 ****


