%nproc=1
%NoSave
%Mem=1900MB
#P OB98/GEN NMR

erre ene a

0 1
  C      -51.035     105.807    -113.211
  O      -50.195     105.234    -114.193
  P      -50.834     104.425    -115.418
  C      -51.548     102.003    -115.921
  O      -51.125     102.928    -114.918
  C      -52.228     100.795    -115.275
  O      -51.249      99.965    -114.608
  C      -53.249     101.158    -114.205
  O      -54.457     101.608    -114.793
  C      -53.364      99.839    -113.449
  O      -54.254      98.940    -114.134
  C      -51.920      99.312    -113.506
  N      -47.938      97.761    -110.711
  C      -48.520      97.243    -111.817
  N      -49.609      97.699    -112.481
  C      -50.108      98.789    -111.877
  C      -49.643      99.409    -110.729
  C      -48.482      98.865    -110.144
  N      -47.842      99.424    -109.057
  N      -50.444     100.493    -110.405
  C      -51.380     100.508    -111.339
  N      -51.180      99.542    -112.283
  O      -50.084     104.524    -116.711
  O      -52.300     105.050    -115.569
  H      -55.083      99.422    -114.308
  H      -52.398     105.447    -116.455
  H      -48.049      96.352    -112.223
  H      -52.207     101.206    -111.377
  H      -51.885      98.234    -113.711
  H      -53.750      99.965    -112.432
  H      -52.835     101.922    -113.530
  H      -52.695     100.197    -116.073
  H      -50.668     101.680    -116.485
  H      -46.942      99.038    -108.810
  H      -48.050     100.391    -108.817
  H      -52.239     102.506    -116.606
  P      -55.365     102.681    -114.022
  C      -56.608     102.791    -111.779
  O      -55.895     101.971    -112.686
  O      -56.411     103.358    -114.850
  O      -54.301     103.739    -113.458
  H      -54.704     104.631    -113.428
  H      -55.902     103.405    -111.210
  H      -57.163     102.152    -111.086
  H      -57.313     103.442    -112.307
  H      -50.437     106.304    -112.476
  H      -51.611     105.037    -112.741
  H      -51.693     106.513    -113.673

 3  4  5  6  7  8  9  10  11  12  22  25  29  30  31  32 0
 6-311+G(2d,p)
 ****
 33  36  37 0
 6-311+G(2d,p)
 ****
 1  2  13  14  15  16  17  18  19  20  21  23  24  26 0
 3-21G
 ****
 27  28  34  35  38  39  40  41  42  43  44  45  46  47  48 0
 3-21G
 ****


