%nproc=1
%NoSave
%Mem=1900MB
#P OB98/GEN NMR

erre ene a

0 1
  C      351.991     -44.749      19.217
  O      351.128     -43.837      19.876
  P      349.544     -44.072      19.745
  C      349.106     -44.813      22.204
  O      349.153     -45.182      20.838
  C      347.737     -45.134      22.803
  O      347.842     -45.097      24.251
  C      346.616     -44.165      22.405
  O      345.402     -44.924      22.359
  C      346.568     -43.199      23.576
  O      345.325     -42.514      23.673
  C      346.872     -44.144      24.734
  N      347.171     -44.050      29.782
  C      346.443     -44.885      28.954
  N      345.744     -45.868      29.560
  N      346.404     -44.766      27.652
  C      347.167     -43.749      27.189
  C      347.899     -42.832      27.907
  C      347.963     -42.996      29.341
  O      348.663     -42.334      30.105
  N      348.466     -41.890      27.090
  C      348.143     -42.283      25.875
  N      347.396     -43.432      25.882
  O      349.414     -44.848      18.353
  O      348.700     -42.838      19.798
  H      344.628     -43.181      23.844
  H      349.236     -44.226      17.620
  H      347.177     -44.200      30.778
  H      348.426     -41.786      24.960
  H      345.983     -44.699      25.067
  H      347.360     -42.446      23.466
  H      345.752     -46.036      30.557
  H      346.791     -43.664      21.450
  H      345.227     -46.514      28.977
  H      347.469     -46.162      22.522
  H      349.277     -43.734      22.287
  H      349.901     -45.331      22.752
  P      344.136     -44.267      21.628
  C      343.809     -45.682      19.483
  O      344.314     -44.492      20.054
  O      344.398     -42.695      21.806
  O      342.811     -44.652      22.202
  H      343.547     -42.227      21.876
  H      343.644     -45.517      18.414
  H      342.861     -45.978      19.944
  H      344.538     -46.486      19.607
  H      353.008     -44.468      19.393
  H      351.793     -44.732      18.166
  H      351.823     -45.736      19.595

 3  4  5  6  7  8  9  10  11  12  23  26  30  31 0
 6-311+G(2d,p)
 ****
 33  35  36  37  38 0
 6-311+G(2d,p)
 ****
 1  2  13  14  15  16  17  18  19  20  21  22  24  25 0
 3-21G
 ****
 27  28  29  32  34  39  40  41  42  43  44  45  46  47  48  49 0
 3-21G
 ****


