%nproc=1
%NoSave
%Mem=1900MB
#P OB98/GEN NMR

erre ene a

0 1
  C      132.956    -542.343     227.286
  O      132.743    -541.631     226.094
  P      133.837    -540.569     225.576
  C      132.198    -538.597     225.784
  O      133.435    -539.152     226.229
  C      131.983    -537.220     226.440
  O      132.019    -537.326     227.884
  C      133.068    -536.207     226.095
  O      133.144    -535.767     224.753
  C      132.800    -535.142     227.152
  O      131.724    -534.283     226.774
  C      132.394    -536.005     228.373
  N      133.470    -536.087     229.372
  C      133.609    -534.974     230.187
  O      132.921    -533.968     230.107
  N      134.644    -535.030     231.092
  C      135.541    -536.060     231.230
  O      136.459    -536.030     232.042
  C      135.333    -537.221     230.327
  C      134.322    -537.168     229.445
  O      134.047    -540.545     224.097
  O      135.149    -540.962     226.417
  H      131.680    -533.560     227.436
  H      135.046    -540.910     227.383
  H      134.787    -534.231     231.687
  H      136.010    -538.044     230.422
  H      134.155    -538.010     228.768
  H      131.496    -535.587     228.856
  H      133.681    -534.505     227.322
  H      134.039    -536.652     226.335
  H      130.983    -536.865     226.157
  H      131.375    -539.262     226.080
  H      132.186    -538.512     224.692
  P      134.285    -534.759     224.237
  C      132.534    -532.918     223.672
  O      133.720    -533.261     224.372
  O      134.974    -535.123     222.962
  O      135.347    -534.813     225.450
  H      136.251    -534.676     225.076
  H      132.323    -531.869     223.847
  H      131.684    -533.514     224.066
  H      132.653    -533.091     222.603
  H      132.127    -542.996     227.465
  H      133.050    -541.655     228.100
  H      133.853    -542.920     227.201

 3  4  5  6  7  8  9  10  11  12  13  23  28  29  30  31  32 0
 6-311+G(2d,p)
 ****
 33  34 0
 6-311+G(2d,p)
 ****
 1  2  14  15  16  17  18  19  20  21  22  24  25  26  27 0
 3-21G
 ****
 35  36  37  38  39  40  41  42  43  44  45 0
 3-21G
 ****


