%nproc=1
%NoSave
%Mem=1900MB
#P OB98/GEN NMR

erre ene a

0 1
  C     -413.786     815.201    -403.728
  O     -414.674     814.875    -402.678
  H     -414.362     815.652    -404.543
  H     -413.300     814.298    -404.100
  H     -413.033     815.922    -403.388
  P     -414.009     814.395    -401.297
  C     -414.548     816.444    -399.785
  O     -414.856     815.084    -400.119
  C     -415.778     817.107    -399.164
  O     -416.722     817.475    -400.203
  C     -416.540     816.242    -398.165
  O     -415.933     816.274    -396.887
  C     -417.878     816.935    -398.160
  O     -417.806     818.137    -397.369
  C     -418.068     817.296    -399.640
  N     -422.492     814.931    -400.380
  C     -422.157     815.919    -399.451
  N     -423.133     816.331    -398.633
  N     -420.965     816.457    -399.388
  C     -420.091     815.938    -400.278
  C     -420.304     814.947    -401.217
  C     -421.637     814.383    -401.301
  O     -421.987     813.505    -402.095
  N     -419.180     814.697    -401.945
  C     -418.266     815.507    -401.437
  N     -418.763     816.284    -400.419
  O     -412.616     815.173    -401.260
  O     -413.808     812.917    -401.164
  H     -417.590     817.873    -396.461
  H     -411.934     814.608    -400.841
  H     -423.428     814.552    -400.384
  H     -417.239     815.580    -401.777
  H     -418.616     818.236    -399.788
  H     -418.679     816.314    -397.735
  H     -424.052     815.932    -398.606
  H     -416.652     815.213    -398.538
  H     -422.915     817.084    -397.992
  H     -415.442     818.042    -398.690
  H     -414.273     816.968    -400.702
  H     -413.719     816.458    -399.083
  P     -416.071     814.958    -395.966
  C     -413.503     815.084    -395.563
  O     -414.796     814.984    -394.990
  O     -415.716     813.781    -396.995
  O     -417.385     814.770    -395.333
  H     -416.097     812.933    -396.677
  H     -412.768     815.089    -394.786
  H     -413.432     815.991    -396.127
  H     -413.334     814.248    -396.209

 6  7  8  9  10  11  12  13  14  15  26  29  33  34 0
 6-311+G(2d,p)
 ****
 36  38  39  40  41 0
 6-311+G(2d,p)
 ****
 1  2  3  4  5  16  17  18  19  20  21  22  23  24  25 0
 3-21G
 ****
 27  28  30  31  32  35  37  42  43  44  45  46  47 0
 3-21G
 ****
 48  49 0
 3-21G
 ****


