%nproc=1
%NoSave
%Mem=1900MB
#P OB98/GEN NMR

erre ene a

0 1
  C     -167.835     414.883    -190.894
  O     -166.825     414.265    -191.666
  H     -167.585     414.831    -189.832
  H     -167.912     415.934    -191.187
  H     -168.799     414.394    -191.073
  P     -166.528     412.719    -191.365
  C     -165.695     411.426    -189.265
  O     -165.934     412.687    -189.874
  C     -165.243     411.637    -187.825
  O     -166.131     412.566    -187.157
  C     -165.260     410.367    -186.980
  O     -164.101     409.575    -187.168
  C     -165.302     410.958    -185.583
  O     -163.997     411.435    -185.211
  C     -166.268     412.137    -185.772
  N     -171.063     413.933    -185.636
  C     -169.892     414.513    -185.982
  N     -168.662     413.961    -186.014
  C     -168.713     412.670    -185.644
  C     -169.831     411.944    -185.268
  C     -171.055     412.634    -185.268
  N     -172.247     412.055    -184.881
  N     -169.480     410.650    -184.935
  C     -168.178     410.593    -185.122
  N     -167.659     411.797    -185.520
  O     -165.246     412.393    -192.268
  O     -167.662     411.777    -191.600
  H     -164.075     411.800    -184.305
  H     -165.114     411.428    -192.336
  H     -169.952     415.555    -186.274
  H     -167.561     409.715    -184.979
  H     -166.022     412.993    -185.132
  H     -165.603     410.228    -184.823
  H     -166.173     409.785    -187.151
  H     -164.242     412.086    -187.837
  H     -164.912     410.901    -189.823
  H     -173.041     412.667    -184.773
  H     -172.228     411.136    -184.470
  H     -166.615     410.832    -189.288
  P     -164.317     408.034    -187.579
  C     -164.786     405.831    -186.287
  O     -164.668     407.247    -186.227
  O     -162.830     407.547    -187.915
  O     -165.254     407.822    -188.721
  H     -162.838     406.866    -188.616
  H     -165.021     405.451    -185.315
  H     -163.861     405.410    -186.620
  H     -165.565     405.567    -186.971

 6  7  8  9  10  11  12  13  14  15  25  28  32  33  34  35 0
 6-311+G(2d,p)
 ****
 36  39  40 0
 6-311+G(2d,p)
 ****
 1  2  3  4  5  16  17  18  19  20  21  22  23  24 0
 3-21G
 ****
 26  27  29  30  31  37  38  41  42  43  44  45  46  47 0
 3-21G
 ****
 48 0
 3-21G
 ****


