%nproc=1
%NoSave
%Mem=1900MB
#P OB98/GEN NMR

erre ene a

0 1
  C       65.861     119.506    -507.867
  O       65.019     118.639    -508.597
  H       66.374     118.931    -507.097
  H       65.268     120.289    -507.386
  H       66.606     119.957    -508.529
  P       64.176     119.274    -509.808
  C       61.677     119.975    -510.096
  O       62.691     119.484    -509.218
  C       60.285     119.705    -509.505
  O       59.993     118.282    -509.615
  C       60.161     120.095    -508.025
  O       58.908     120.745    -507.817
  C       60.213     118.768    -507.286
  O       59.538     118.826    -506.033
  C       59.601     117.804    -508.310
  N       60.041     116.424    -508.101
  C       59.655     115.807    -506.891
  O       58.983     116.437    -506.076
  N       60.079     114.532    -506.635
  C       60.877     113.933    -507.470
  N       61.288     112.678    -507.141
  C       61.347     114.555    -508.723
  C       60.893     115.780    -508.978
  O       64.014     118.045    -510.823
  O       64.772     120.495    -510.423
  H       59.464     117.903    -505.689
  H       63.705     118.347    -511.710
  H       62.022     114.027    -509.380
  H       61.182     116.319    -509.877
  H       58.497     117.821    -508.270
  H       61.251     118.491    -507.095
  H       60.968     120.755    -507.695
  H       59.544     120.229    -510.121
  H       60.958     112.289    -506.275
  H       61.778     119.479    -511.064
  H       61.925     112.133    -507.709
  H       61.815     121.055    -510.229
  P       58.855     121.768    -506.575
  C       57.897     121.759    -504.165
  O       57.993     121.077    -505.413
  O       57.906     122.952    -507.109
  O       60.198     122.258    -506.151
  H       58.457     123.710    -507.420
  H       57.296     121.186    -503.490
  H       57.447     122.718    -504.316
  H       58.876     121.885    -503.751

 6  7  8  9  10  11  12  13  14  15  16  26  30  31  32  33  35 0
 6-311+G(2d,p)
 ****
 37  38 0
 6-311+G(2d,p)
 ****
 1  2  3  4  5  17  18  19  20  21  22  23  24  25 0
 3-21G
 ****
 27  28  29  34  36  39  40  41  42  43  44  45  46 0
 3-21G
 ****


