%nproc=1
%NoSave
%Mem=1900MB
#P OB98/GEN NMR

erre ene a

0 1
  C      160.769    -336.365     304.901
  O      161.070    -336.631     306.253
  H      159.751    -335.968     304.844
  H      160.813    -337.284     304.313
  H      161.459    -335.622     304.491
  P      162.496    -337.267     306.631
  C      164.118    -336.973     308.599
  O      162.784    -336.792     308.142
  C      164.551    -335.822     309.506
  O      164.860    -334.654     308.697
  C      163.480    -335.403     310.528
  O      164.072    -335.265     311.822
  C      163.023    -334.040     310.031
  O      162.468    -333.228     311.059
  C      164.315    -333.519     309.393
  N      164.072    -332.385     308.509
  C      163.603    -331.215     309.117
  O      163.423    -331.180     310.336
  N      163.299    -330.139     308.329
  C      163.406    -330.232     307.039
  N      163.060    -329.137     306.314
  C      163.869    -331.457     306.355
  C      164.188    -332.484     307.141
  O      163.586    -336.971     305.658
  O      162.215    -338.832     306.801
  H      163.027    -333.314     311.860
  H      163.060    -339.325     306.683
  H      163.937    -331.487     305.273
  H      164.535    -333.425     306.729
  H      165.038    -333.214     310.164
  H      162.256    -334.178     309.256
  H      162.650    -336.105     310.588
  H      165.487    -336.105     310.006
  H      162.740    -328.321     306.825
  H      164.779    -337.043     307.726
  H      163.079    -329.100     305.308
  H      164.167    -337.910     309.163
  P      163.453    -336.184     312.986
  C      164.318    -337.288     315.168
  O      164.575    -336.366     314.119
  O      163.353    -337.627     312.303
  O      162.125    -335.711     313.473
  H      162.416    -337.856     312.152
  H      165.149    -337.302     315.842
  H      164.176    -338.266     314.757
  H      163.435    -336.991     315.695

 6  7  8  9  10  11  12  13  14  15  16  26  30  31  32  33  35 0
 6-311+G(2d,p)
 ****
 37  38 0
 6-311+G(2d,p)
 ****
 1  2  3  4  5  17  18  19  20  21  22  23  24  25 0
 3-21G
 ****
 27  28  29  34  36  39  40  41  42  43  44  45  46 0
 3-21G
 ****


