%nproc=1
%NoSave
%Mem=1900MB
#P OB98/GEN NMR

erre ene a

0 1
  C     -139.966     344.460    -221.417
  O     -139.318     344.199    -222.659
  P     -140.070     344.728    -223.979
  C     -141.964     343.877    -225.543
  O     -141.116     343.597    -224.440
  C     -142.252     342.609    -226.348
  O     -141.086     342.134    -227.052
  C     -142.727     341.447    -225.487
  O     -144.102     341.596    -225.180
  C     -142.441     340.252    -226.397
  O     -143.517     340.046    -227.334
  C     -141.162     340.684    -227.126
  N     -138.606     336.385    -226.294
  C     -139.910     336.568    -226.716
  N     -140.624     335.453    -226.970
  N     -140.459     337.747    -226.867
  C     -139.625     338.775    -226.577
  C     -138.309     338.711    -226.182
  C     -137.710     337.406    -226.005
  O     -136.553     337.188    -225.663
  N     -137.770     339.968    -226.040
  C     -138.794     340.783    -226.228
  N     -139.927     340.111    -226.612
  O     -138.928     344.682    -225.105
  O     -140.639     346.104    -223.828
  H     -144.364     340.059    -226.864
  H     -138.673     345.591    -225.352
  H     -138.231     335.455    -226.186
  H     -138.766     341.853    -226.108
  H     -141.200     340.415    -228.192
  H     -142.347     339.318    -225.829
  H     -140.264     334.514    -226.877
  H     -142.117     341.381    -224.577
  H     -141.584     335.571    -227.282
  H     -143.019     342.857    -227.094
  H     -141.499     344.633    -226.194
  H     -142.894     344.326    -225.168
  P     -144.500     341.874    -223.649
  C     -144.428     340.533    -221.432
  O     -144.130     340.566    -222.809
  O     -146.102     341.869    -223.685
  O     -143.981     343.164    -223.097
  H     -146.443     342.619    -223.153
  H     -144.620     339.496    -221.135
  H     -145.309     341.136    -221.192
  H     -143.573     340.911    -220.863
  H     -139.376     344.064    -220.617
  H     -140.930     343.995    -221.413
  H     -140.079     345.516    -221.289

 3  4  5  6  7  8  9  10  11  12  23  26  30  31 0
 6-311+G(2d,p)
 ****
 33  35  36  37  38 0
 6-311+G(2d,p)
 ****
 1  2  13  14  15  16  17  18  19  20  21  22  24  25 0
 3-21G
 ****
 27  28  29  32  34  39  40  41  42  43  44  45  46  47  48  49 0
 3-21G
 ****


