%nproc=1
%NoSave
%Mem=1900MB
#P OB98/GEN NMR

erre ene a

0 1
  C      -93.451     154.089    -139.897
  O      -93.715     154.044    -141.284
  H      -92.842     153.224    -139.625
  H      -94.393     154.041    -139.343
  H      -92.908     155.002    -139.632
  P      -94.327     155.364    -141.955
  C      -92.160     156.469    -142.849
  O      -93.352     155.771    -143.169
  C      -91.293     156.645    -144.099
  O      -90.938     155.329    -144.605
  C      -91.992     157.406    -145.234
  O      -91.033     158.252    -145.879
  C      -92.426     156.305    -146.185
  O      -92.572     156.765    -147.529
  C      -91.306     155.285    -145.995
  N      -92.673     152.396    -149.894
  C      -92.198     153.695    -149.868
  N      -92.078     154.321    -151.059
  N      -91.871     154.323    -148.767
  C      -92.012     153.559    -147.656
  C      -92.476     152.270    -147.551
  C      -92.859     151.594    -148.774
  O      -93.309     150.456    -148.860
  N      -92.501     151.856    -146.242
  C      -92.057     152.894    -145.559
  N      -91.741     153.949    -146.371
  O      -94.049     156.494    -140.856
  O      -95.776     155.290    -142.309
  H      -91.717     157.170    -147.796
  H      -94.896     156.835    -140.511
  H      -92.922     151.965    -150.768
  H      -91.953     152.938    -144.484
  H      -90.420     155.518    -146.596
  H      -93.388     155.894    -145.860
  H      -92.260     153.882    -151.946
  H      -92.834     158.011    -144.892
  H      -91.693     155.262    -151.066
  H      -90.357     157.139    -143.810
  H      -91.605     155.900    -142.098
  H      -92.414     157.452    -142.434
  P      -91.439     159.792    -146.081
  C      -90.719     160.871    -143.838
  O      -90.430     160.698    -145.217
  O      -92.825     159.909    -145.288
  O      -91.592     160.195    -147.512
  H      -93.562     159.995    -145.921
  H      -89.970     161.492    -143.392
  H      -90.727     159.917    -143.353
  H      -91.677     161.335    -143.730

 6  7  8  9  10  11  12  13  14  15  26  29  33  34 0
 6-311+G(2d,p)
 ****
 36  38  39  40  41 0
 6-311+G(2d,p)
 ****
 1  2  3  4  5  16  17  18  19  20  21  22  23  24  25 0
 3-21G
 ****
 27  28  30  31  32  35  37  42  43  44  45  46  47 0
 3-21G
 ****
 48  49 0
 3-21G
 ****


