%nproc=1
%NoSave
%Mem=1900MB
#P OB98/GEN NMR

erre ene a

0 1
  C     -167.236     138.321     289.774
  O     -167.803     139.595     289.607
  P     -168.454     140.106     288.238
  C     -170.669     141.015     289.298
  O     -169.478     141.294     288.574
  C     -171.491     142.288     289.525
  O     -170.848     143.072     290.561
  C     -171.535     143.168     288.260
  O     -172.809     143.742     287.996
  C     -170.367     144.118     288.470
  O     -170.453     145.306     287.688
  C     -170.394     144.315     289.984
  N     -167.395     148.093     291.590
  C     -168.735     148.129     291.260
  N     -169.299     149.355     291.185
  N     -169.445     147.061     291.007
  C     -168.721     145.914     291.011
  C     -167.389     145.759     291.326
  C     -166.626     146.941     291.643
  O     -165.414     146.972     291.825
  N     -166.978     144.457     291.162
  C     -168.052     143.835     290.722
  N     -169.126     144.689     290.587
  O     -168.895     139.050     287.279
  O     -167.221     140.901     287.566
  H     -170.463     145.041     286.749
  H     -167.298     140.778     286.598
  H     -166.881     148.965     291.699
  H     -168.105     142.784     290.457
  H     -171.102     145.101     290.270
  H     -169.456     143.602     288.165
  H     -168.746     150.198     291.234
  H     -171.340     142.559     287.368
  H     -170.195     149.427     290.708
  H     -172.489     142.015     289.885
  H     -170.348     140.595     290.260
  H     -171.266     140.256     288.784
  P     -173.476     144.091     286.587
  C     -175.739     143.540     287.652
  O     -175.020     144.430     286.825
  O     -173.530     142.701     285.796
  O     -172.733     145.111     285.787
  H     -173.321     142.855     284.854
  H     -176.811     143.712     287.510
  H     -175.482     143.716     288.695
  H     -175.519     142.495     287.390
  H     -166.870     138.222     290.775
  H     -166.427     138.198     289.085
  H     -167.979     137.573     289.590

 3  4  5  6  7  8  9  10  11  12  23  26  30  31 0
 6-311+G(2d,p)
 ****
 33  35  36  37  38 0
 6-311+G(2d,p)
 ****
 1  2  13  14  15  16  17  18  19  20  21  22  24  25 0
 3-21G
 ****
 27  28  29  32  34  39  40  41  42  43  44  45  46  47  48  49 0
 3-21G
 ****


