%nproc=1
%NoSave
%Mem=1900MB
#P OB98/GEN NMR

erre ene a

0 1
  C      -43.127      47.080     -34.113
  O      -42.441      46.774     -35.306
  H      -44.134      46.657     -34.171
  H      -43.207      48.165     -34.002
  H      -42.620      46.659     -33.240
  P      -40.845      46.874     -35.323
  C      -40.973      48.931     -36.877
  O      -40.452      48.394     -35.668
  C      -40.818      50.450     -36.942
  O      -41.578      50.984     -38.049
  C      -41.353      51.143     -35.688
  O      -40.452      51.204     -34.598
  C      -41.670      52.540     -36.214
  O      -40.504      53.377     -36.184
  C      -42.100      52.267     -37.660
  N      -46.131      54.514     -39.855
  C      -44.800      54.878     -39.902
  N      -44.517      56.019     -40.572
  N      -43.845      54.195     -39.328
  C      -44.288      53.132     -38.617
  C      -45.583      52.681     -38.484
  C      -46.628      53.414     -39.168
  O      -47.824      53.137     -39.151
  N      -45.646      51.565     -37.682
  C      -44.406      51.390     -37.272
  N      -43.540      52.301     -37.834
  O      -40.432      46.098     -36.667
  O      -40.152      46.289     -34.130
  H      -40.701      54.195     -36.675
  H      -39.531      45.740     -36.579
  H      -46.822      55.063     -40.338
  H      -44.078      50.609     -36.594
  H      -41.675      53.007     -38.351
  H      -42.433      53.037     -35.609
  H      -45.230      56.637     -40.927
  H      -42.290      50.675     -35.366
  H      -43.608      56.455     -40.406
  H      -39.765      50.698     -37.123
  H      -42.031      48.661     -36.912
  H      -40.491      48.458     -37.740
  P      -40.981      50.964     -33.105
  C      -40.705      53.501     -32.590
  O      -41.545      52.367     -32.576
  O      -39.625      50.761     -32.278
  O      -41.909      49.808     -32.946
  H      -39.434      49.809     -32.171
  H      -41.239      54.345     -32.206
  H      -40.395      53.702     -33.594
  H      -39.845      53.315     -31.981

 6  7  8  9  10  11  12  13  14  15  26  29  33  34 0
 6-311+G(2d,p)
 ****
 36  38  39  40  41 0
 6-311+G(2d,p)
 ****
 1  2  3  4  5  16  17  18  19  20  21  22  23  24  25 0
 3-21G
 ****
 27  28  30  31  32  35  37  42  43  44  45  46  47 0
 3-21G
 ****
 48  49 0
 3-21G
 ****


