%nproc=1
%NoSave
%Mem=1900MB
#P OB98/GEN NMR

erre ene a

0 1
  C     -347.520    -209.548     426.807
  O     -347.713    -209.602     428.211
  P     -348.463    -208.381     428.926
  C     -350.941    -209.084     429.308
  O     -350.002    -208.421     428.469
  C     -352.058    -208.120     429.717
  O     -351.492    -207.034     430.512
  C     -352.800    -207.484     428.535
  O     -354.167    -207.302     428.929
  C     -352.122    -206.130     428.411
  O     -352.896    -205.177     427.698
  C     -351.910    -205.802     429.894
  N     -350.931    -204.729     430.103
  C     -351.221    -203.488     429.557
  O     -352.241    -203.238     428.910
  N     -350.261    -202.527     429.717
  C     -349.027    -202.704     430.280
  O     -348.168    -201.836     430.288
  C     -348.779    -204.043     430.843
  C     -349.730    -204.978     430.731
  O     -347.879    -207.096     428.171
  O     -348.258    -208.300     430.402
  H     -352.456    -204.315     427.789
  H     -347.183    -206.674     428.709
  H     -350.456    -201.610     429.337
  H     -347.819    -204.218     431.315
  H     -349.557    -205.977     431.120
  H     -352.858    -205.518     430.354
  H     -351.165    -206.249     427.888
  H     -352.744    -208.069     427.611
  H     -352.760    -208.658     430.367
  H     -350.433    -209.442     430.203
  H     -351.351    -209.953     428.782
  P     -355.303    -207.448     427.803
  C     -355.941    -209.968     428.059
  O     -355.274    -208.972     427.318
  O     -354.628    -206.639     426.593
  O     -356.631    -206.904     428.215
  H     -353.681    -206.840     426.486
  H     -356.856    -209.588     428.519
  H     -355.275    -210.346     428.836
  H     -356.202    -210.794     427.390
  H     -347.008    -210.430     426.483
  H     -346.936    -208.686     426.560
  H     -348.470    -209.487     426.318

 3  4  5  6  7  8  9  10  11  12  13  23  28  29  30  31  32 0
 6-311+G(2d,p)
 ****
 33  34 0
 6-311+G(2d,p)
 ****
 1  2  14  15  16  17  18  19  20  21  22  24  25  26 0
 3-21G
 ****
 27  35  36  37  38  39  40  41  42  43  44  45 0
 3-21G
 ****


