%nproc=1
%NoSave
%Mem=1900MB
#P OB98/GEN NMR

erre ene a

0 1
  C      317.069    -333.331    -105.249
  O      317.631    -332.037    -105.325
  P      317.048    -330.859    -104.408
  C      318.959    -331.028    -102.699
  O      317.556    -331.115    -102.908
  C      319.328    -329.654    -102.140
  O      318.770    -329.478    -100.821
  C      320.827    -329.430    -101.984
  O      321.429    -329.164    -103.236
  C      320.847    -328.262    -101.003
  O      320.637    -327.019    -101.691
  C      319.648    -328.586    -100.101
  N      319.641    -327.984     -95.035
  C      319.323    -327.141     -96.043
  N      319.389    -327.364     -97.373
  C      319.862    -328.599     -97.621
  C      320.257    -329.555     -96.698
  C      320.110    -329.218     -95.342
  N      320.370    -330.085     -94.306
  N      320.716    -330.688     -97.344
  C      320.603    -330.413     -98.629
  N      320.034    -329.192     -98.841
  O      315.583    -330.605    -104.547
  O      317.891    -329.575    -104.854
  H      321.416    -326.866    -102.261
  H      317.285    -328.897    -105.209
  H      318.962    -326.162     -95.741
  H      320.905    -331.071     -99.436
  H      319.062    -327.689     -99.865
  H      321.798    -328.181    -100.468
  H      321.289    -330.301    -101.510
  H      318.888    -328.890    -102.797
  H      319.460    -331.184    -103.657
  H      320.094    -329.797     -93.382
  H      320.425    -331.082     -94.514
  H      319.272    -331.814    -102.003
  P      322.564    -330.142    -103.794
  C      321.215    -330.685    -105.908
  O      321.836    -331.207    -104.748
  O      323.479    -330.728    -102.769
  O      323.371    -329.228    -104.836
  H      324.308    -329.506    -104.850
  H      320.259    -330.226    -105.636
  H      321.029    -331.503    -106.605
  H      321.854    -329.941    -106.391
  H      317.581    -333.982    -105.926
  H      316.033    -333.286    -105.512
  H      317.168    -333.705    -104.251

 3  4  5  6  7  8  9  10  11  12  22  25  29  30  31  32 0
 6-311+G(2d,p)
 ****
 33  36  37 0
 6-311+G(2d,p)
 ****
 1  2  13  14  15  16  17  18  19  20  21  23  24  26 0
 3-21G
 ****
 27  28  34  35  38  39  40  41  42  43  44  45  46  47  48 0
 3-21G
 ****


