%nproc=1
%NoSave
%Mem=1900MB
#P OB98/GEN NMR

erre ene a

0 1
  C       14.796     -47.953     -19.033
  O       13.390     -48.231     -19.065
  P       12.779     -49.625     -19.576
  C       12.945     -51.323     -17.643
  O       12.117     -50.402     -18.337
  C       12.392     -51.653     -16.252
  O       12.443     -50.469     -15.399
  C       10.937     -52.157     -16.250
  O       10.861     -53.182     -15.254
  C       10.173     -50.911     -15.829
  O        8.870     -51.178     -15.346
  C       11.143     -50.352     -14.783
  N       10.891     -48.977     -14.365
  C       10.599     -48.750     -13.014
  O       10.500     -49.678     -12.214
  N       10.403     -47.456     -12.595
  C       10.482     -46.477     -13.442
  N       10.287     -45.222     -12.957
  C       10.767     -46.672     -14.872
  C       10.961     -47.932     -15.259
  O       13.752     -50.459     -20.344
  O       11.529     -49.232     -20.495
  H       11.464     -49.864     -21.236
  H        8.300     -51.376     -16.111
  H       10.831     -45.829     -15.543
  H       11.204     -48.157     -16.293
  H       11.145     -51.007     -13.904
  H       10.079     -50.248     -16.694
  H       10.616     -52.573     -17.210
  H       13.053     -52.398     -15.793
  H       10.103     -45.126     -11.965
  H       13.940     -50.880     -17.531
  H       10.333     -44.389     -13.525
  H       13.044     -52.236     -18.241
  P       10.641     -54.706     -15.699
  C       12.707     -55.215     -17.202
  O       12.087     -55.354     -15.940
  O       10.105     -54.536     -17.203
  O        9.665     -55.498     -14.892
  H        9.570     -55.314     -17.441
  H       13.757     -54.952     -17.049
  H       12.238     -54.440     -17.812
  H       12.655     -56.169     -17.732
  H       14.956     -46.965     -18.656
  H       15.197     -48.026     -20.022
  H       15.285     -48.661     -18.397

 3  4  5  6  7  8  9  10  11  12  13  24  27  28  29  30  32 0
 6-311+G(2d,p)
 ****
 34  35 0
 6-311+G(2d,p)
 ****
 1  2  14  15  16  17  18  19  20  21  22  23  25  26 0
 3-21G
 ****
 31  33  36  37  38  39  40  41  42  43  44  45  46 0
 3-21G
 ****


