%nproc=1
%NoSave
%Mem=1900MB
#P OB98/GEN NMR

erre ene a

0 1
  C       12.917     242.373      69.230
  O       12.566     241.550      68.131
  P       13.271     241.857      66.718
  C       11.672     241.089      64.820
  O       12.738     240.741      65.695
  C       11.475     240.028      63.735
  O       12.617     240.050      62.845
  C       11.321     238.605      64.273
  O       10.371     237.927      63.450
  C       12.691     237.992      64.049
  O       12.624     236.571      63.958
  C       13.131     238.706      62.761
  N       14.582     238.697      62.593
  C       15.079     238.090      61.436
  O       14.311     237.527      60.656
  N       16.434     238.090      61.218
  C       17.230     238.557      62.130
  N       18.564     238.537      61.867
  C       16.750     239.093      63.419
  C       15.430     239.152      63.573
  O       14.789     241.428      66.976
  O       13.150     243.273      66.259
  H       12.447     236.215      64.858
  H       15.399     241.982      66.456
  H       17.458     239.437      64.161
  H       14.988     239.551      64.476
  H       12.675     238.230      61.882
  H       13.357     238.255      64.880
  H       10.993     238.578      65.316
  H       10.596     240.307      63.141
  H       18.867     238.152      60.982
  H       11.910     242.038      64.330
  H       19.258     238.880      62.519
  H       10.754     241.223      65.400
  P        8.925     237.625      64.077
  C        9.516     235.143      64.362
  O        8.647     236.079      63.755
  O        7.961     238.350      63.017
  O        8.644     238.090      65.467
  H        7.038     238.294      63.321
  H        9.134     234.137      64.173
  H        9.561     235.307      65.442
  H       10.517     235.227      63.928
  H       12.377     242.058      70.098
  H       12.671     243.390      69.007
  H       13.968     242.292      69.415

 3  4  5  6  7  8  9  10  11  12  13  21  23  27  28  29  30  32 0
 6-311+G(2d,p)
 ****
 34  35 0
 6-311+G(2d,p)
 ****
 1  2  14  15  16  17  18  19  20  22  24  25  26 0
 3-21G
 ****
 31  33  36  37  38  39  40  41  42  43  44  45  46 0
 3-21G
 ****


