%nproc=1
%NoSave
%Mem=1900MB
#P OB98/GEN NMR

erre ene a

0 1
  C       15.418     467.907    -442.718
  O       14.787     468.513    -441.611
  P       15.313     469.902    -441.009
  C       13.375     471.401    -441.819
  O       14.748     471.067    -441.966
  C       13.214     472.929    -441.659
  O       13.660     473.578    -442.893
  C       11.746     473.353    -441.403
  O       11.563     474.184    -440.251
  C       11.334     473.976    -442.728
  O       10.228     474.849    -442.639
  C       12.668     474.578    -443.206
  N       12.655     474.913    -444.630
  C       12.123     476.145    -444.993
  O       11.684     476.978    -444.187
  N       12.047     476.415    -446.332
  C       12.333     475.532    -447.334
  O       12.145     475.787    -448.520
  C       12.849     474.216    -446.899
  C       13.004     473.981    -445.594
  O       16.786     469.965    -440.745
  O       14.407     470.095    -439.692
  H        9.423     474.311    -442.557
  H       13.443     470.133    -439.858
  H       11.662     477.303    -446.603
  H       13.069     473.500    -447.669
  H       13.389     473.014    -445.241
  H       12.919     475.479    -442.646
  H       11.055     473.159    -443.405
  H       11.115     472.478    -441.206
  H       13.868     473.241    -440.838
  H       12.982     470.905    -440.926
  H       12.798     471.037    -442.678
  P       10.224     474.254    -439.369
  C       11.403     473.474    -437.177
  O       10.377     473.234    -438.141
  O        8.944     474.129    -440.142
  O       10.315     475.693    -438.668
  H        9.411     476.034    -438.499
  H       11.695     472.505    -436.744
  H       11.001     474.100    -436.373
  H       12.275     473.952    -437.623
  H       14.915     466.994    -442.959
  H       16.439     467.698    -442.476
  H       15.378     468.569    -443.558

 3  4  5  6  7  8  9  10  11  12  13  23  28  29  30  31  32 0
 6-311+G(2d,p)
 ****
 33  34 0
 6-311+G(2d,p)
 ****
 1  2  14  15  16  17  18  19  20  21  22  24  25  26  27 0
 3-21G
 ****
 35  36  37  38  39  40  41  42  43  44  45 0
 3-21G
 ****


