%nproc=1
%NoSave
%Mem=1900MB
#P OB98/GEN NMR

erre ene a

0 1
  C     -188.056     606.668     416.677
  O     -189.003     606.029     415.816
  P     -189.149     604.432     415.978
  C     -191.088     602.711     415.781
  O     -190.620     604.016     415.479
  C     -192.591     602.590     415.524
  O     -193.384     603.227     416.567
  C     -193.037     603.237     414.216
  O     -192.753     602.361     413.131
  C     -194.537     603.434     414.453
  O     -195.270     602.233     414.162
  C     -194.587     603.757     415.957
  N     -197.768     607.707     416.172
  C     -197.962     606.434     415.641
  N     -199.179     606.184     415.119
  N     -197.036     605.515     415.631
  C     -195.863     605.911     416.194
  C     -195.576     607.119     416.773
  C     -196.594     608.147     416.780
  O     -196.487     609.267     417.251
  N     -194.287     607.126     417.290
  C     -193.785     605.965     416.909
  N     -194.727     605.163     416.296
  O     -189.201     604.217     417.559
  O     -188.030     603.669     415.354
  H     -196.187     602.342     414.469
  H     -188.373     603.792     417.858
  H     -198.508     608.382     416.140
  H     -192.776     605.651     417.072
  H     -195.426     603.237     416.449
  H     -194.936     604.218     413.807
  H     -199.947     606.861     415.095
  H     -192.531     604.204     414.090
  H     -199.348     605.260     414.729
  H     -192.847     601.519     415.523
  H     -190.864     602.469     416.827
  H     -190.532     601.986     415.171
  P     -191.767     602.898     411.984
  C     -189.787     601.687     410.814
  O     -191.115     601.613     411.277
  O     -190.552     603.533     412.826
  O     -192.365     603.912     411.062
  H     -190.294     604.393     412.426
  H     -189.334     600.687     410.855
  H     -189.177     602.380     411.419
  H     -189.785     602.026     409.764
  H     -188.047     607.720     416.479
  H     -187.082     606.263     416.498
  H     -188.331     606.499     417.697

 3  4  5  6  7  8  9  10  11  12  23  26  30  31 0
 6-311+G(2d,p)
 ****
 33  35  36  37  38 0
 6-311+G(2d,p)
 ****
 1  2  13  14  15  16  17  18  19  20  21  22  24  25 0
 3-21G
 ****
 27  28  29  32  34  39  40  41  42  43  44  45  46  47  48  49 0
 3-21G
 ****


