%nproc=1
%NoSave
%Mem=1900MB
#P OB98/GEN NMR

erre ene a

0 1
  C      263.724     391.268     828.191
  O      263.027     392.108     827.293
  H      263.538     390.220     827.916
  H      263.366     391.422     829.213
  H      264.799     391.458     828.133
  P      263.137     393.695     827.480
  C      261.467     393.639     829.479
  O      261.733     394.109     828.160
  C      260.006     393.854     829.828
  O      259.676     395.258     829.919
  C      259.012     393.288     828.811
  O      258.918     391.873     828.838
  C      257.739     393.962     829.283
  O      257.256     393.317     830.466
  C      258.252     395.393     829.589
  N      258.068     396.326     828.473
  C      256.753     396.569     828.068
  O      255.819     396.025     828.649
  N      256.533     397.407     826.996
  C      257.554     397.950     826.375
  N      257.268     398.766     825.330
  C      258.944     397.701     826.767
  C      259.134     396.876     827.801
  O      263.516     394.480     826.266
  O      264.147     393.884     828.711
  H      256.735     392.543     830.178
  H      264.260     394.852     828.863
  H      259.756     398.138     826.191
  H      260.155     396.652     828.130
  H      257.756     395.815     830.473
  H      256.934     393.940     828.545
  H      259.254     393.652     827.793
  H      259.827     393.419     830.831
  H      256.298     398.930     825.087
  H      262.128     394.188     830.166
  H      257.991     399.177     824.738
  H      261.698     392.574     829.545
  P      259.053     391.104     827.419
  C      256.555     391.469     826.735
  O      257.584     390.561     827.061
  O      259.891     389.793     827.802
  O      259.703     391.914     826.333
  H      260.848     389.913     827.575
  H      255.655     390.929     826.528
  H      256.838     392.034     825.872
  H      256.391     392.133     827.558

 6  7  8  9  10  11  12  13  14  15  16  26  30  31  32  33  35 0
 6-311+G(2d,p)
 ****
 37  38 0
 6-311+G(2d,p)
 ****
 1  2  3  4  5  17  18  19  20  21  22  23  24  25 0
 3-21G
 ****
 27  28  29  34  36  39  40  41  42  43  44  45  46 0
 3-21G
 ****


