%nproc=1
%NoSave
%Mem=1900MB
#P OB98/GEN NMR

erre ene a

0 1
  C       49.354     -15.737      21.562
  O       50.023     -14.981      22.556
  P       50.159     -13.394      22.427
  C       47.756     -13.168      23.458
  O       48.699     -12.756      22.494
  C       46.503     -12.290      23.334
  O       46.725     -11.015      23.969
  C       46.141     -12.034      21.873
  O       45.177     -12.973      21.425
  C       45.627     -10.608      21.905
  O       44.255     -10.576      22.341
  C       46.544      -9.970      22.975
  N       47.879      -9.502      22.557
  C       48.014      -8.253      21.958
  O       47.079      -7.480      21.775
  N       49.281      -7.925      21.546
  C       50.398      -8.691      21.715
  O       51.462      -8.503      21.137
  C       50.237      -9.858      22.587
  C       49.004     -10.217      22.942
  O       50.583     -13.191      20.898
  O       51.128     -12.754      23.367
  H       44.218     -11.028      23.204
  H       51.546     -13.063      20.822
  H       49.361      -7.082      20.986
  H       51.120     -10.417      22.865
  H       48.857     -11.102      23.556
  H       46.046      -9.127      23.466
  H       45.640     -10.162      20.913
  H       47.041     -12.068      21.247
  H       45.672     -12.785      23.852
  H       48.184     -13.082      24.463
  H       47.497     -14.220      23.305
  P       44.889     -13.124      19.859
  C       47.378     -13.461      19.349
  O       46.239     -12.651      19.134
  O       43.637     -12.476      19.368
  O       44.861     -14.711      19.642
  H       43.935     -15.029      19.637
  H       48.170     -13.140      18.669
  H       47.144     -14.512      19.155
  H       47.726     -13.342      20.378
  H       49.371     -16.773      21.830
  H       49.846     -15.604      20.621
  H       48.340     -15.405      21.484

 3  4  5  6  7  8  9  10  11  12  13  23  28  29  30  31  32 0
 6-311+G(2d,p)
 ****
 33  34 0
 6-311+G(2d,p)
 ****
 1  2  14  15  16  17  18  19  20  21  22  24  25  26  27 0
 3-21G
 ****
 35  36  37  38  39  40  41  42  43  44  45 0
 3-21G
 ****


