%nproc=1
%NoSave
%Mem=1900MB
#P OB98/GEN NMR

erre ene a

0 1
  C      -46.561     561.796     582.223
  O      -45.344     561.233     582.650
  H      -47.219     560.995     581.876
  H      -46.392     562.481     581.384
  H      -47.058     562.316     583.045
  P      -44.173     562.193     583.172
  C      -44.652     561.478     585.595
  O      -44.577     562.571     584.687
  C      -45.623     561.774     586.745
  O      -46.994     561.786     586.245
  C      -45.557     560.763     587.898
  O      -45.490     561.448     589.147
  C      -46.877     560.000     587.788
  O      -47.287     559.425     589.011
  C      -47.797     561.109     587.234
  N      -49.019     560.570     586.675
  C      -50.138     560.556     587.539
  O      -50.027     560.986     588.685
  N      -51.306     559.993     587.099
  C      -51.365     559.471     585.914
  N      -52.543     558.914     585.555
  C      -50.207     559.438     584.988
  C      -49.082     560.003     585.424
  O      -43.877     563.359     582.289
  O      -42.913     561.229     583.377
  H      -46.520     558.968     589.413
  H      -42.088     561.774     583.352
  H      -50.307     558.968     584.014
  H      -48.179     560.022     584.815
  H      -48.042     561.838     588.015
  H      -46.771     559.207     587.042
  H      -44.701     560.089     587.820
  H      -45.428     562.799     587.100
  H      -53.299     558.940     586.213
  H      -43.639     561.278     585.984
  H      -52.695     558.436     584.671
  H      -45.009     560.598     585.043
  P      -44.035     561.912     589.641
  C      -44.477     564.459     589.331
  O      -43.706     563.323     588.939
  O      -43.048     560.881     588.902
  O      -43.868     561.880     591.123
  H      -42.661     560.275     589.559
  H      -44.149     565.319     588.785
  H      -44.350     564.632     590.379
  H      -45.511     564.278     589.123

 6  7  8  9  10  11  12  13  14  15  16  26  30  31  32  33  35 0
 6-311+G(2d,p)
 ****
 37  38 0
 6-311+G(2d,p)
 ****
 1  2  3  4  5  17  18  19  20  21  22  23  24  25 0
 3-21G
 ****
 27  28  29  34  36  39  40  41  42  43  44  45  46 0
 3-21G
 ****


