%nproc=1
%NoSave
%Mem=1900MB
#P OB98/GEN NMR

erre ene a

0 1
  C      176.691     380.686    -212.163
  O      176.249     380.712    -210.819
  P      175.458     379.437    -210.247
  C      173.106     380.618    -210.367
  O      174.107     379.997    -209.574
  C      172.640     381.922    -209.706
  O      171.997     381.600    -208.433
  C      173.758     382.928    -209.425
  O      173.212     384.240    -209.610
  C      174.068     382.693    -207.948
  O      174.702     383.802    -207.337
  C      172.664     382.385    -207.422
  N      172.673     381.661    -206.142
  C      173.394     382.209    -205.083
  O      174.053     383.257    -205.167
  N      173.373     381.495    -203.906
  C      172.776     380.279    -203.717
  O      172.802     379.675    -202.655
  C      172.061     379.731    -204.886
  C      172.035     380.433    -206.015
  O      176.376     379.038    -208.998
  O      175.251     378.353    -211.253
  H      176.766     379.808    -208.543
  H      174.915     383.564    -206.414
  H      173.863     381.892    -203.121
  H      171.586     378.755    -204.773
  H      171.526     380.048    -206.893
  H      172.092     383.313    -207.305
  H      174.729     381.816    -207.851
  H      174.630     382.788    -210.077
  H      171.872     382.367    -210.351
  H      172.251     379.935    -210.460
  H      173.504     380.798    -211.371
  P      173.526     385.009    -211.000
  C      175.433     386.483    -209.956
  O      174.181     386.424    -210.622
  O      172.039     385.415    -211.440
  O      174.231     384.184    -212.024
  H      171.522     385.821    -210.727
  H      175.847     387.487    -210.095
  H      176.135     385.753    -210.352
  H      175.281     386.307    -208.881
  H      177.197     381.601    -212.390
  H      175.849     380.573    -212.813
  H      177.362     379.864    -212.302

 3  4  5  6  7  8  9  10  11  12  13  24  28  29  30  31  32 0
 6-311+G(2d,p)
 ****
 33  34 0
 6-311+G(2d,p)
 ****
 1  2  14  15  16  17  18  19  20  21  22  23  25  26  27 0
 3-21G
 ****
 35  36  37  38  39  40  41  42  43  44  45 0
 3-21G
 ****


