%nproc=1
%NoSave
%Mem=1900MB
#P OB98/GEN NMR

erre ene a

0 1
  C      -71.001     183.962     457.730
  O      -72.135     183.882     458.610
  P      -73.623     184.227     458.112
  C      -75.978     184.287     459.169
  O      -74.572     184.401     459.397
  C      -76.761     184.202     460.485
  O      -76.649     182.879     461.060
  C      -76.288     185.170     461.567
  O      -76.791     186.473     461.320
  C      -76.834     184.500     462.824
  O      -78.226     184.813     462.999
  C      -76.652     183.012     462.496
  N      -74.495     181.128     466.739
  C      -75.746     181.584     466.482
  N      -76.241     182.073     465.329
  C      -75.303     182.050     464.362
  C      -73.988     181.617     464.473
  C      -73.581     181.144     465.730
  N      -72.307     180.699     465.991
  N      -73.323     181.769     463.272
  C      -74.227     182.263     462.443
  N      -75.437     182.448     463.059
  O      -74.159     183.287     457.079
  O      -73.523     185.714     457.527
  H      -78.537     184.339     463.797
  H      -74.202     185.846     456.829
  H      -76.435     181.544     467.321
  H      -74.050     182.496     461.401
  H      -77.494     182.415     462.861
  H      -76.312     184.822     463.733
  H      -75.193     185.181     461.610
  H      -77.818     184.370     460.256
  H      -76.157     183.378     458.574
  H      -72.086     180.406     466.932
  H      -71.610     180.748     465.262
  H      -76.309     185.160     458.593
  P      -75.806     187.740     461.373
  C      -75.444     189.627     459.673
  O      -76.394     188.842     460.370
  O      -74.357     187.432     461.201
  O      -76.092     188.381     462.816
  H      -75.285     188.821     463.137
  H      -75.076     190.421     460.335
  H      -75.929     190.086     458.812
  H      -74.606     189.018     459.333
  H      -70.115     183.692     458.265
  H      -70.905     184.962     457.362
  H      -71.140     183.292     456.908

 3  4  5  6  7  8  9  10  11  12  22  25  29  30  31  32 0
 6-311+G(2d,p)
 ****
 33  36  37 0
 6-311+G(2d,p)
 ****
 1  2  13  14  15  16  17  18  19  20  21  23  24  26 0
 3-21G
 ****
 27  28  34  35  38  39  40  41  42  43  44  45  46  47  48 0
 3-21G
 ****


