%nproc=1
%NoSave
%Mem=1900MB
#P OB98/GEN NMR

erre ene a

0 1
  C     -115.755      12.828    -113.690
  O     -116.494      14.055    -113.725
  P     -117.762      14.196    -112.758
  C     -119.007      16.216    -111.694
  O     -118.239      15.726    -112.782
  C     -119.232      17.724    -111.838
  O     -118.016      18.469    -111.601
  C     -119.712      18.141    -113.221
  O     -121.117      17.975    -113.362
  C     -119.364      19.621    -113.218
  O     -120.370      20.359    -112.495
  C     -118.034      19.639    -112.457
  N     -114.877      22.487    -115.196
  C     -115.948      22.854    -114.406
  N     -116.212      24.177    -114.327
  N     -116.693      22.003    -113.751
  C     -116.301      20.717    -113.908
  C     -115.261      20.229    -114.664
  C     -114.454      21.179    -115.397
  O     -113.502      20.911    -116.123
  N     -115.180      18.864    -114.580
  C     -116.156      18.527    -113.760
  N     -116.877      19.615    -113.337
  O     -117.115      14.051    -111.299
  O     -118.830      13.179    -112.991
  H     -121.190      20.302    -113.021
  H     -117.775      13.691    -110.679
  H     -114.341      23.184    -115.683
  H     -116.379      17.517    -113.443
  H     -117.932      20.521    -111.813
  H     -119.327      20.042    -114.227
  H     -115.650      24.890    -114.764
  H     -119.153      17.623    -114.009
  H     -116.972      24.468    -113.725
  H     -119.977      18.030    -111.091
  H     -118.505      16.005    -110.746
  H     -119.955      15.672    -111.654
  P     -121.645      16.650    -114.095
  C     -123.089      14.740    -113.095
  O     -122.887      16.131    -113.229
  O     -120.486      15.590    -113.788
  O     -121.883      16.800    -115.558
  H     -120.413      14.954    -114.523
  H     -123.870      14.571    -112.350
  H     -122.174      14.245    -112.762
  H     -123.415      14.314    -114.048
  H     -114.943      12.881    -114.384
  H     -116.399      12.016    -113.956
  H     -115.371      12.671    -112.704

 3  4  5  6  7  8  9  10  11  12  23  26  30  31 0
 6-311+G(2d,p)
 ****
 33  35  36  37  38 0
 6-311+G(2d,p)
 ****
 1  2  13  14  15  16  17  18  19  20  21  22  24  25 0
 3-21G
 ****
 27  28  29  32  34  39  40  41  42  43  44  45  46  47  48  49 0
 3-21G
 ****


