%nproc=1
%NoSave
%Mem=1900MB
#P OB98/GEN NMR

erre ene a

0 1
  C      114.317    -229.629    -230.697
  O      114.084    -229.682    -232.087
  H      114.707    -228.640    -230.444
  H      115.055    -230.382    -230.410
  H      113.385    -229.790    -230.147
  P      113.481    -231.051    -232.678
  C      114.552    -233.234    -233.614
  O      114.765    -231.928    -233.086
  C      115.886    -233.953    -233.816
  O      116.625    -233.293    -234.875
  C      116.768    -233.961    -232.567
  O      117.355    -235.254    -232.413
  C      117.832    -232.918    -232.853
  O      119.042    -233.169    -232.142
  C      117.943    -232.989    -234.383
  N      118.448    -231.741    -234.951
  C      119.747    -231.361    -234.595
  O      120.405    -232.064    -233.822
  N      120.249    -230.180    -235.069
  C      119.499    -229.405    -235.791
  N      120.046    -228.234    -236.213
  C      118.105    -229.738    -236.153
  C      117.655    -230.908    -235.710
  O      112.871    -230.595    -234.083
  O      112.506    -231.750    -231.792
  H      119.433    -234.004    -232.490
  H      112.279    -231.288    -234.462
  H      117.515    -229.052    -236.743
  H      116.641    -231.238    -235.925
  H      118.614    -233.806    -234.686
  H      117.464    -231.930    -232.554
  H      116.221    -233.715    -231.658
  H      115.681    -234.971    -234.167
  H      120.998    -228.034    -235.937
  H      114.028    -233.146    -234.572
  H      119.545    -227.543    -236.755
  H      113.930    -233.804    -232.915
  P      117.389    -235.836    -230.913
  C      119.199    -236.795    -229.324
  O      118.927    -236.100    -230.533
  O      116.771    -237.302    -231.071
  O      116.635    -234.999    -229.932
  H      115.832    -237.307    -230.804
  H      120.257    -236.898    -229.202
  H      118.749    -237.765    -229.361
  H      118.796    -236.246    -228.499

 6  7  8  9  10  11  12  13  14  15  16  26  30  31  32  33  35 0
 6-311+G(2d,p)
 ****
 37  38 0
 6-311+G(2d,p)
 ****
 1  2  3  4  5  17  18  19  20  21  22  23  24  25 0
 3-21G
 ****
 27  28  29  34  36  39  40  41  42  43  44  45  46 0
 3-21G
 ****


