%nproc=1
%NoSave
%Mem=1900MB
#P OB98/GEN NMR

erre ene a

0 1
  C     -899.250     361.638    -186.846
  O     -898.640     361.322    -188.073
  H     -899.760     362.606    -186.938
  H     -898.510     361.720    -186.043
  H     -900.000     360.882    -186.579
  P     -897.700     360.018    -188.134
  C     -895.750     361.130    -186.859
  O     -896.200     360.566    -188.080
  C     -894.310     361.638    -187.023
  O     -893.390     360.528    -187.086
  C     -894.090     362.422    -188.303
  O     -894.650     363.726    -188.198
  C     -892.580     362.360    -188.446
  O     -891.930     363.311    -187.594
  C     -892.310     360.920    -187.973
  N     -892.150     359.972    -189.083
  C     -890.840     359.814    -189.553
  O     -889.910     360.422    -189.054
  N     -890.660     358.952    -190.633
  C     -891.660     358.311    -191.152
  N     -891.390     357.488    -192.193
  C     -893.050     358.461    -190.664
  C     -893.230     359.297    -189.624
  O     -897.980     359.039    -189.232
  O     -897.890     359.350    -186.684
  H     -890.970     363.267    -187.824
  H     -898.640     358.719    -186.694
  H     -893.850     357.906    -191.114
  H     -894.200     359.466    -189.214
  H     -891.390     360.890    -187.359
  H     -892.260     362.556    -189.464
  H     -894.550     361.900    -189.164
  H     -894.050     362.238    -186.145
  H     -890.440     357.419    -192.518
  H     -895.780     360.345    -186.104
  H     -892.080     356.881    -192.622
  H     -896.400     361.948    -186.552
  P     -895.610     364.313    -189.330
  C     -893.820     365.799    -190.445
  O     -895.020     365.768    -189.698
  O     -897.070     364.289    -189.002
  O     -895.220     363.444    -190.609
  H     -895.580     362.525    -190.545
  H     -893.536     366.815    -190.622
  H     -893.969     365.302    -191.381
  H     -893.046     365.303    -189.897

 6  7  8  9  10  11  12  13  14  15  16  26  30  31  32  33  35 0
 6-311+G(2d,p)
 ****
 37  38 0
 6-311+G(2d,p)
 ****
 1  2  3  4  5  17  18  19  20  21  22  23  24  25 0
 3-21G
 ****
 27  28  29  34  36  39  40  41  42  43  44  45  46 0
 3-21G
 ****


