%nproc=1
%NoSave
%Mem=1900MB
#P OB98/GEN NMR

erre ene a

0 1
  C     -188.709     185.908    -299.059
  O     -188.145     185.913    -300.359
  P     -189.011     185.743    -301.689
  C     -187.350     187.155    -303.103
  O     -188.031     185.917    -302.955
  C     -186.184     187.082    -304.113
  O     -185.167     186.192    -303.610
  C     -186.682     186.471    -305.436
  O     -187.323     187.285    -306.399
  C     -185.496     185.657    -305.959
  O     -184.738     186.376    -306.945
  C     -184.646     185.428    -304.704
  N     -183.278     180.703    -306.005
  C     -182.915     181.912    -306.581
  N     -182.254     181.821    -307.765
  N     -183.190     183.081    -306.058
  C     -183.933     182.999    -304.929
  C     -184.339     181.872    -304.255
  C     -183.994     180.588    -304.821
  O     -184.369     179.502    -304.385
  N     -185.151     182.176    -303.176
  C     -185.260     183.496    -303.223
  N     -184.567     184.032    -304.290
  O     -190.348     186.422    -301.717
  O     -189.288     184.152    -301.690
  H     -184.115     185.748    -307.351
  H     -190.178     184.003    -302.070
  H     -183.108     179.834    -306.492
  H     -185.842     184.081    -302.542
  H     -183.611     185.771    -304.864
  H     -185.843     184.731    -306.439
  H     -182.157     180.955    -308.261
  H     -187.439     185.722    -305.170
  H     -182.124     182.678    -308.294
  H     -185.706     188.053    -304.230
  H     -186.982     187.449    -302.120
  H     -188.054     187.924    -303.424
  P     -188.214     186.782    -307.624
  C     -189.904     188.673    -307.289
  O     -189.029     188.026    -308.201
  O     -189.355     185.890    -306.930
  O     -187.490     185.969    -308.653
  H     -189.734     185.260    -307.594
  H     -190.616     189.291    -307.844
  H     -189.319     189.318    -306.631
  H     -190.458     187.938    -306.696
  H     -187.933     186.038    -298.333
  H     -189.205     184.975    -298.889
  H     -189.415     186.708    -298.973

 3  4  5  6  7  8  9  10  11  12  23  26  30  31 0
 6-311+G(2d,p)
 ****
 33  35  36  37  38 0
 6-311+G(2d,p)
 ****
 1  2  13  14  15  16  17  18  19  20  21  22  24  25 0
 3-21G
 ****
 27  28  29  32  34  39  40  41  42  43  44  45  46  47  48  49 0
 3-21G
 ****


