%nproc=1
%NoSave
%Mem=1900MB
#P OB98/GEN NMR

erre ene a

0 1
  C      161.203     450.993     650.617
  O      162.521     451.336     650.983
  P      162.788     451.640     652.537
  C      165.119     450.465     652.345
  O      164.384     451.620     652.739
  C      166.582     450.644     652.754
  O      166.675     451.172     654.091
  C      167.391     449.352     652.765
  O      167.829     449.032     651.440
  C      168.523     449.686     653.713
  O      169.555     450.448     653.055
  C      167.802     450.552     654.772
  N      168.594     449.657     659.698
  C      169.376     450.362     658.768
  N      170.499     450.943     659.251
  N      169.073     450.475     657.489
  C      167.925     449.843     657.163
  C      167.079     449.100     657.984
  C      167.407     449.033     659.393
  O      166.706     448.509     660.250
  N      166.037     448.583     657.290
  C      166.214     449.030     656.031
  N      167.342     449.806     655.932
  O      162.293     450.305     653.267
  O      162.119     452.879     653.070
  H      170.273     450.623     653.683
  H      161.381     450.424     653.615
  H      168.872     449.624     660.657
  H      165.570     448.828     655.205
  H      168.449     451.354     655.151
  H      169.017     448.793     654.126
  H      170.806     450.893     660.190
  H      166.800     448.515     653.161
  H      171.082     451.444     658.591
  H      167.060     451.382     652.066
  H      165.070     450.377     651.249
  H      164.698     449.587     652.799
  P      168.057     447.482     651.091
  C      167.723     447.851     648.549
  O      168.569     447.381     649.569
  O      166.577     446.879     651.039
  O      168.898     446.740     652.092
  H      166.567     445.958     651.387
  H      168.327     448.231     647.710
  H      167.034     448.652     648.898
  H      167.104     447.022     648.186
  H      161.160     450.817     649.563
  H      160.542     451.795     650.872
  H      160.907     450.107     651.139

 3  4  5  6  7  8  9  10  11  12  23  26  30  31 0
 6-311+G(2d,p)
 ****
 33  35  36  37  38 0
 6-311+G(2d,p)
 ****
 1  2  13  14  15  16  17  18  19  20  21  22  24  25 0
 3-21G
 ****
 27  28  29  32  34  39  40  41  42  43  44  45  46  47  48  49 0
 3-21G
 ****


