%nproc=1
%NoSave
%Mem=1900MB
#P OB98/GEN NMR

erre ene a

0 1
  C      -67.013     -16.890     -13.034
  O      -67.213     -15.785     -13.904
  P      -68.117     -14.565     -13.386
  C      -66.170     -13.090     -12.519
  O      -67.313     -13.864     -12.186
  C      -66.159     -11.765     -11.758
  O      -67.292     -10.963     -12.189
  C      -66.256     -11.905     -10.236
  O      -65.502     -10.831      -9.661
  C      -67.730     -11.677      -9.963
  O      -67.978     -11.293      -8.614
  C      -68.037     -10.605     -11.005
  N      -72.701      -9.802      -9.072
  C      -71.477      -9.784      -8.503
  N      -70.281     -10.007      -9.084
  C      -70.431     -10.274     -10.392
  C      -71.616     -10.362     -11.102
  C      -72.798     -10.106     -10.388
  N      -74.045     -10.113     -10.968
  N      -71.367     -10.684     -12.420
  C      -70.058     -10.789     -12.504
  N      -69.449     -10.526     -11.310
  O      -69.322     -15.313     -12.644
  O      -68.617     -13.649     -14.448
  H      -67.853     -12.077      -8.046
  H      -70.151     -15.187     -13.146
  H      -71.455      -9.552      -7.441
  H      -69.508     -11.053     -13.396
  H      -67.704      -9.609     -10.685
  H      -68.290     -12.597     -10.162
  H      -65.900     -12.867      -9.851
  H      -65.251     -11.215     -12.036
  H      -66.191     -12.877     -13.591
  H      -74.827      -9.786     -10.424
  H      -74.112     -10.150     -11.979
  H      -65.264     -13.662     -12.296
  P      -64.515     -11.200      -8.453
  C      -62.363     -12.051      -9.622
  O      -63.574     -12.385      -8.973
  O      -65.479     -11.915      -7.394
  O      -63.816     -10.024      -7.856
  H      -65.131     -11.795      -6.492
  H      -61.616     -12.815      -9.391
  H      -61.983     -11.076      -9.302
  H      -62.529     -12.031     -10.703
  H      -66.394     -17.617     -13.517
  H      -67.958     -17.330     -12.793
  H      -66.536     -16.555     -12.136

 3  4  5  6  7  8  9  10  11  12  22  25  29  30  31  32 0
 6-311+G(2d,p)
 ****
 33  36  37 0
 6-311+G(2d,p)
 ****
 1  2  13  14  15  16  17  18  19  20  21  23  24  26 0
 3-21G
 ****
 27  28  34  35  38  39  40  41  42  43  44  45  46  47  48 0
 3-21G
 ****


