%nproc=1
%NoSave
%Mem=1900MB
#P OB98/GEN NMR

erre ene a

0 1
  C     -265.092    -512.076    -524.226
  O     -263.747    -512.547    -524.252
  P     -262.878    -512.367    -522.912
  C     -263.401    -514.660    -521.785
  O     -263.593    -513.252    -521.771
  C     -262.861    -515.157    -520.443
  O     -263.773    -514.728    -519.387
  C     -262.711    -516.683    -520.339
  O     -261.570    -516.934    -519.519
  C     -263.999    -517.069    -519.609
  O     -263.974    -518.372    -519.037
  C     -264.119    -515.907    -518.632
  N     -267.508    -517.957    -515.380
  C     -266.222    -518.283    -515.674
  N     -265.384    -517.686    -516.540
  C     -265.981    -516.636    -517.147
  C     -267.283    -516.200    -516.965
  C     -268.067    -516.909    -516.031
  N     -269.381    -516.578    -515.737
  N     -267.556    -515.112    -517.772
  C     -266.429    -514.899    -518.427
  N     -265.452    -515.785    -518.067
  O     -263.191    -510.865    -522.471
  O     -261.404    -512.610    -523.082
  H     -263.998    -519.050    -519.739
  H     -262.396    -510.426    -522.113
  H     -265.820    -519.141    -515.138
  H     -266.285    -514.126    -519.180
  H     -263.410    -515.998    -517.792
  H     -264.829    -517.059    -520.333
  H     -262.580    -517.178    -521.302
  H     -261.887    -514.669    -520.260
  H     -262.671    -514.923    -522.572
  H     -269.912    -517.263    -515.212
  H     -269.847    -515.931    -516.375
  H     -264.351    -515.154    -522.041
  P     -260.731    -518.290    -519.758
  C     -258.771    -516.974    -520.807
  O     -259.781    -517.938    -521.018
  O     -261.835    -519.229    -520.436
  O     -260.070    -518.866    -518.552
  H     -262.278    -518.777    -521.177
  H     -258.155    -516.908    -521.706
  H     -258.138    -517.276    -519.956
  H     -259.217    -515.996    -520.613
  H     -265.552    -512.257    -525.175
  H     -265.098    -511.026    -524.021
  H     -265.636    -512.592    -523.462

 3  4  5  6  7  8  9  10  11  12  22  25  29  30  31  32 0
 6-311+G(2d,p)
 ****
 33  36  37 0
 6-311+G(2d,p)
 ****
 1  2  13  14  15  16  17  18  19  20  21  23  24  26 0
 3-21G
 ****
 27  28  34  35  38  39  40  41  42  43  44  45  46  47  48 0
 3-21G
 ****


