%nproc=1
%NoSave
%Mem=1900MB
#P OB98/GEN NMR

erre ene a

0 1
  C     -130.424     252.658      79.126
  O     -130.055     253.978      78.721
  P     -128.950     254.165      77.574
  C     -130.588     254.401      75.594
  O     -129.580     255.029      76.373
  C     -131.346     255.432      74.735
  O     -132.263     256.188      75.569
  C     -130.405     256.431      74.035
  O     -130.657     256.553      72.634
  C     -130.576     257.706      74.853
  O     -130.243     258.879      74.126
  C     -132.017     257.596      75.361
  N     -132.238     258.385      76.578
  C     -132.082     259.766      76.462
  O     -131.704     260.320      75.432
  N     -132.315     260.484      77.607
  C     -132.605     259.975      78.833
  O     -132.760     260.663      79.834
  C     -132.695     258.504      78.910
  C     -132.510     257.789      77.791
  O     -128.232     252.923      77.156
  O     -127.920     255.211      78.240
  H     -130.767     258.886      73.294
  H     -127.012     254.947      77.984
  H     -132.225     261.486      77.535
  H     -132.904     258.057      79.870
  H     -132.561     256.710      77.822
  H     -132.729     257.954      74.610
  H     -129.898     257.660      75.717
  H     -129.359     256.106      74.089
  H     -131.927     254.873      73.995
  H     -131.304     253.903      76.251
  H     -130.135     253.611      74.981
  P     -129.813     255.805      71.496
  C     -131.577     253.908      71.337
  O     -130.817     254.888      70.648
  O     -128.563     255.118      71.955
  O     -129.452     256.993      70.474
  H     -128.527     256.876      70.162
  H     -131.908     253.153      70.620
  H     -132.462     254.379      71.778
  H     -130.990     253.419      72.127
  H     -131.167     252.715      79.894
  H     -129.562     252.146      79.501
  H     -130.819     252.125      78.287

 3  4  5  6  7  8  9  10  11  12  13  23  28  29  30  31  32 0
 6-311+G(2d,p)
 ****
 33  34 0
 6-311+G(2d,p)
 ****
 1  2  14  15  16  17  18  19  20  21  22  24  25  26  27 0
 3-21G
 ****
 35  36  37  38  39  40  41  42  43  44  45 0
 3-21G
 ****


