%nproc=1
%NoSave
%Mem=1900MB
#P OB98/GEN NMR

erre ene a

0 1
  C      -90.218    -210.311    -253.723
  O      -90.997    -209.198    -254.151
  P      -91.281    -209.055    -255.726
  C      -90.001    -206.803    -255.573
  O      -90.177    -208.026    -256.276
  C      -88.517    -206.451    -255.471
  O      -87.758    -207.609    -255.065
  C      -87.886    -205.983    -256.776
  O      -88.139    -204.612    -257.035
  C      -86.412    -206.205    -256.483
  O      -85.912    -205.127    -255.670
  C      -86.439    -207.510    -255.670
  N      -82.829    -210.692    -257.395
  C      -82.756    -209.560    -256.668
  N      -83.763    -208.758    -256.254
  C      -84.950    -209.211    -256.708
  C      -85.169    -210.333    -257.493
  C      -84.046    -211.105    -257.832
  N      -84.124    -212.280    -258.553
  N      -86.513    -210.479    -257.758
  C      -87.092    -209.471    -257.137
  N      -86.187    -208.683    -256.483
  O      -92.638    -208.204    -255.773
  O      -91.403    -210.346    -256.464
  H      -86.043    -204.300    -256.178
  H      -93.104    -208.357    -256.619
  H      -81.758    -209.256    -256.366
  H      -88.161    -209.277    -257.136
  H      -85.709    -207.505    -254.853
  H      -85.797    -206.241    -257.388
  H      -88.191    -206.624    -257.617
  H      -88.402    -205.682    -254.694
  H      -90.411    -206.903    -254.563
  H      -83.307    -212.864    -258.598
  H      -85.045    -212.680    -258.705
  H      -90.548    -206.006    -256.099
  P      -89.106    -204.274    -258.276
  C      -87.107    -202.792    -259.042
  O      -88.134    -203.693    -259.414
  O      -89.914    -202.993    -257.769
  O      -90.000    -205.396    -258.680
  H      -90.777    -202.934    -258.222
  H      -86.372    -202.747    -259.853
  H      -86.599    -203.127    -258.132
  H      -87.524    -201.794    -258.889
  H      -90.108    -210.282    -252.659
  H      -89.253    -210.268    -254.182
  H      -90.708    -211.219    -254.006

 3  4  5  6  7  8  9  10  11  12  22  25  29  30  31  32 0
 6-311+G(2d,p)
 ****
 33  36  37 0
 6-311+G(2d,p)
 ****
 1  2  13  14  15  16  17  18  19  20  21  23  24  26 0
 3-21G
 ****
 27  28  34  35  38  39  40  41  42  43  44  45  46  47  48 0
 3-21G
 ****


