%nproc=1
%NoSave
%Mem=1900MB
#P OB98/GEN NMR

erre ene a

0 1
  C      137.037     107.990      49.858
  O      136.121     106.909      49.954
  P      134.703     107.176      50.656
  C      135.666     106.030      52.773
  O      134.951     107.137      52.242
  C      134.806     105.236      53.755
  O      135.495     104.004      54.098
  C      134.502     105.965      55.068
  O      133.199     105.550      55.493
  C      135.538     105.401      56.021
  O      135.163     105.566      57.386
  C      135.594     103.955      55.538
  N      138.365     102.275      59.492
  C      137.157     102.874      59.432
  N      136.483     103.292      58.341
  C      137.186     103.038      57.224
  C      138.443     102.466      57.133
  C      139.043     102.069      58.340
  N      140.269     101.448      58.403
  N      138.848     102.394      55.816
  C      137.855     102.914      55.125
  N      136.819     103.293      55.932
  O      133.908     105.818      50.368
  O      133.956     108.362      50.150
  H      135.058     106.520      57.562
  H      133.176     105.987      49.742
  H      136.662     103.034      60.387
  H      137.838     103.038      54.052
  H      134.752     103.359      55.914
  H      136.497     105.910      55.870
  H      134.548     107.057      54.994
  H      133.875     104.955      53.249
  H      136.547     106.403      53.302
  H      140.569     101.072      59.288
  H      140.695     101.120      57.543
  H      136.000     105.384      51.955
  P      132.370     106.576      56.405
  C      131.535     104.671      57.952
  O      132.228     105.899      57.847
  O      130.890     106.496      55.799
  O      132.899     107.973      56.387
  H      130.422     107.338      55.951
  H      131.989     104.075      58.749
  H      131.572     104.100      57.019
  H      130.490     104.869      58.208
  H      137.930     107.659      49.370
  H      137.277     108.342      50.839
  H      136.594     108.783      49.293

 3  4  5  6  7  8  9  10  11  12  22  25  29  30  31  32 0
 6-311+G(2d,p)
 ****
 33  36  37 0
 6-311+G(2d,p)
 ****
 1  2  13  14  15  16  17  18  19  20  21  23  24  26 0
 3-21G
 ****
 27  28  34  35  38  39  40  41  42  43  44  45  46  47  48 0
 3-21G
 ****


