%nproc=1
%NoSave
%Mem=1900MB
#P OB98/GEN NMR

erre ene a

0 1
  C      112.033    -126.467    -259.746
  O      111.989    -125.080    -259.486
  H      112.541    -126.961    -258.914
  H      112.593    -126.667    -260.663
  H      111.021    -126.872    -259.829
  P      111.348    -124.108    -260.589
  C      109.573    -122.950    -259.117
  O      110.810    -122.814    -259.809
  C      109.818    -123.450    -257.689
  O      110.715    -122.514    -257.041
  C      108.525    -123.531    -256.864
  O      108.333    -124.806    -256.257
  C      108.616    -122.311    -255.955
  O      107.899    -122.431    -254.744
  C      110.126    -122.111    -255.791
  N      110.507    -120.739    -255.462
  C      110.421    -120.355    -254.126
  O      110.063    -121.081    -253.203
  N      110.777    -119.057    -253.859
  C      111.187    -118.129    -254.772
  O      111.495    -116.983    -254.472
  C      111.227    -118.587    -256.170
  C      110.891    -119.848    -256.446
  O      110.357    -124.741    -261.507
  O      112.614    -123.544    -261.390
  H      107.969    -121.571    -254.280
  H      112.670    -123.980    -262.262
  H      110.735    -118.771    -252.894
  H      111.534    -117.874    -256.922
  H      110.912    -120.221    -257.467
  H      110.516    -122.758    -255.006
  H      108.201    -121.450    -256.491
  H      107.645    -123.425    -257.509
  H      110.329    -124.417    -257.736
  H      108.955    -123.665    -259.670
  H      109.059    -121.981    -259.089
  P      107.799    -126.108    -257.007
  C      109.611    -127.652    -255.887
  O      108.241    -127.395    -256.170
  O      108.029    -126.153    -258.481
  O      106.205    -126.059    -256.767
  H      105.796    -126.465    -257.561
  H      109.695    -128.555    -255.320
  H      110.018    -126.838    -255.324
  H      110.151    -127.756    -256.805

 6  7  8  9  10  11  12  13  14  15  16  26  31  32  33  34  35 0
 6-311+G(2d,p)
 ****
 36  37 0
 6-311+G(2d,p)
 ****
 1  2  3  4  5  17  18  19  20  21  22  23  24  25 0
 3-21G
 ****
 27  28  29  30  38  39  40  41  42  43  44  45 0
 3-21G
 ****


