%nproc=1
%NoSave
%Mem=1900MB
#P OB98/GEN NMR

erre ene a

0 1
  C     -429.826    -164.727     -38.916
  O     -431.079    -164.556     -39.549
  H     -429.148    -163.947     -39.266
  H     -429.405    -165.703     -39.172
  H     -429.935    -164.642     -37.831
  P     -432.233    -165.597     -39.152
  C     -433.131    -165.108     -41.542
  O     -433.442    -165.347     -40.176
  C     -434.385    -164.658     -42.285
  O     -435.441    -165.627     -42.089
  C     -434.953    -163.335     -41.790
  O     -434.239    -162.220     -42.291
  C     -436.382    -163.420     -42.300
  O     -436.475    -163.014     -43.671
  C     -436.697    -164.914     -42.164
  N     -441.215    -166.670     -40.562
  C     -440.664    -166.587     -41.791
  N     -439.447    -166.115     -42.135
  C     -438.763    -165.732     -41.043
  C     -439.192    -165.761     -39.727
  C     -440.484    -166.261     -39.497
  N     -441.055    -166.323     -38.249
  N     -438.223    -165.244     -38.889
  C     -437.224    -164.916     -39.683
  N     -437.503    -165.197     -40.993
  O     -432.782    -165.017     -37.765
  O     -431.789    -167.016     -39.025
  H     -437.383    -163.230     -43.959
  H     -432.393    -165.521     -37.024
  H     -441.288    -166.934     -42.611
  H     -436.290    -164.471     -39.364
  H     -437.240    -165.305     -43.033
  H     -437.042    -162.777     -41.718
  H     -434.971    -163.320     -40.693
  H     -434.160    -164.610     -43.358
  H     -432.755    -166.031     -41.996
  H     -432.352    -164.340     -41.600
  H     -442.010    -166.629     -38.166
  H     -440.562    -165.914     -37.465
  P     -433.647    -161.175     -41.230
  C     -434.374    -158.959     -42.397
  O     -433.311    -159.827     -42.027
  O     -432.208    -161.772     -40.866
  O     -434.490    -160.980     -40.015
  H     -432.005    -161.601     -39.926
  H     -433.978    -158.112     -42.918
  H     -434.887    -158.629     -41.518
  H     -435.057    -159.482     -43.033

 6  7  8  9  10  11  12  13  14  15  25  28  32  33  34  35 0
 6-311+G(2d,p)
 ****
 36  37  40 0
 6-311+G(2d,p)
 ****
 1  2  3  4  5  16  17  18  19  20  21  22  23  24 0
 3-21G
 ****
 26  27  29  30  31  38  39 41  42  43  44  45  46  47  48 0
 3-21G
 ****


