%nproc=1
%NoSave
%Mem=1900MB
#P OB98/GEN NMR

erre ene a

0 1
  C     -271.167    -497.609     117.493
  O     -271.020    -496.190     117.404
  P     -271.705    -495.226     118.491
  C     -272.814    -493.506     116.961
  O     -271.769    -493.731     117.896
  C     -272.688    -492.162     116.217
  O     -272.775    -491.051     117.134
  C     -271.383    -491.992     115.423
  O     -271.718    -491.212     114.276
  C     -270.521    -491.196     116.392
  O     -269.430    -490.547     115.746
  C     -271.572    -490.268     117.019
  N     -271.140    -489.729     118.303
  C     -270.609    -488.441     118.311
  O     -270.462    -487.829     117.255
  N     -270.208    -487.903     119.507
  C     -270.242    -488.617     120.582
  N     -269.809    -488.030     121.730
  C     -270.722    -490.016     120.610
  C     -271.158    -490.497     119.449
  O     -271.127    -495.325     119.865
  O     -273.242    -495.684     118.492
  H     -269.781    -489.771     115.263
  H     -273.622    -495.534     119.377
  H     -270.711    -490.587     121.529
  H     -271.533    -491.511     119.366
  H     -271.788    -489.422     116.348
  H     -270.108    -491.869     117.158
  H     -270.924    -492.939     115.133
  H     -273.543    -492.084     115.535
  H     -269.461    -487.082     121.667
  H     -273.771    -493.518     117.497
  H     -269.692    -488.531     122.606
  H     -272.838    -494.325     116.238
  P     -271.564    -491.774     112.787
  C     -270.630    -489.656     111.683
  O     -271.743    -490.528     111.800
  O     -272.421    -492.950     112.465
  O     -269.999    -492.135     112.647
  H     -269.883    -492.728     111.885
  H     -270.790    -488.981     110.832
  H     -269.708    -490.224     111.517
  H     -270.530    -489.062     112.600
  H     -270.642    -498.073     116.684
  H     -272.205    -497.864     117.438
  H     -270.764    -497.952     118.423

 3  4  5  6  7  8  9  10  11  12  13  23  27  28  29  30  32 0
 6-311+G(2d,p)
 ****
 34  35 0
 6-311+G(2d,p)
 ****
 1  2  14  15  16  17  18  19  20  21  22  24  25  26 0
 3-21G
 ****
 31  33  36  37  38  39  40  41  42  43  44  45  46 0
 3-21G
 ****


