%nproc=1
%NoSave
%Mem=1900MB
#P OB98/GEN NMR

erre ene a

0 1
  C      442.431    -269.803      23.286
  O      442.839    -271.063      22.793
  H      441.725    -269.931      24.112
  H      443.310    -269.267      23.652
  H      441.967    -269.217      22.487
  P      441.684    -272.031      22.239
  C      442.328    -274.485      22.782
  O      442.391    -273.420      21.839
  C      443.355    -275.560      22.423
  O      443.104    -275.996      21.062
  C      444.820    -275.100      22.515
  O      445.543    -275.937      23.424
  C      445.375    -275.323      21.114
  O      446.702    -275.849      21.112
  C      444.382    -276.298      20.492
  N      447.057    -277.047      16.217
  C      447.157    -277.605      17.445
  N      446.351    -277.443      18.509
  C      445.327    -276.618      18.207
  C      445.077    -275.999      16.997
  C      446.016    -276.221      15.971
  N      445.945    -275.607      14.740
  N      443.938    -275.219      17.069
  C      443.528    -275.341      18.319
  N      444.349    -276.159      19.048
  O      441.311    -271.382      20.822
  O      440.489    -272.161      23.120
  H      446.979    -275.910      20.178
  H      440.341    -271.305      20.746
  H      448.011    -278.268      17.592
  H      442.679    -274.824      18.759
  H      444.625    -277.345      20.730
  H      445.381    -274.364      20.580
  H      444.917    -274.053      22.814
  H      443.186    -276.428      23.073
  H      441.325    -274.930      22.762
  H      446.712    -275.734      14.107
  H      445.228    -274.911      14.590
  H      442.513    -274.087      23.784
  P      445.980    -275.268      24.824
  C      448.204    -276.575      25.179
  O      446.868    -276.345      25.616
  O      444.606    -275.243      25.649
  O      446.576    -273.905      24.686
  H      444.625    -274.518      26.303
  H      448.661    -277.314      25.803
  H      448.761    -275.663      25.239
  H      448.194    -276.920      24.166

 6  7  8  9  10  11  12  13  14  15  25  28  32  33  34  35 0
 6-311+G(2d,p)
 ****
 36  39  40 0
 6-311+G(2d,p)
 ****
 1  2  3  4  5  16  17  18  19  20  21  22  23  24 0
 3-21G
 ****
 26  27  29  30  31  37  38  41  42  43  44  45  46  47  48 0
 3-21G
 ****


