%nproc=1
%NoSave
%Mem=1900MB
#P OB98/GEN NMR

erre ene a

0 1
  C       14.034     222.013      96.990
  O       13.228     221.480      98.020
  H       13.410     222.644      96.351
  H       14.453     221.208      96.382
  H       14.840     222.624      97.404
  P       13.924     220.621      99.180
  C       14.017     222.680     100.727
  O       14.758     221.651     100.083
  C       14.738     223.122     101.996
  O       14.045     224.234     102.605
  C       14.815     222.043     103.071
  O       15.792     221.076     102.745
  C       15.124     222.891     104.295
  O       16.514     223.247     104.339
  C       14.253     224.142     104.033
  N       12.977     224.107     104.751
  C       12.954     224.736     105.991
  O       13.932     225.294     106.483
  N       11.769     224.663     106.673
  C       10.666     223.958     106.283
  O        9.710     223.737     107.020
  C       10.724     223.379     104.933
  C       11.865     223.464     104.245
  O       14.682     219.418      98.730
  O       12.700     220.220     100.135
  H       12.438     219.298      99.951
  H       16.619     223.856     105.096
  H       11.755     225.075     107.595
  H        9.845     222.867     104.560
  H       11.939     223.018     103.260
  H       14.788     225.052     104.335
  H       14.896     222.373     105.228
  H       13.833     221.575     103.204
  H       15.743     223.464     101.717
  H       13.028     222.285     100.989
  H       13.894     223.519     100.036
  P       15.898     219.701     103.555
  C       14.145     218.264     102.359
  O       14.458     218.999     103.535
  O       16.516     219.810     104.909
  O       16.773     218.751     102.605
  H       17.525     218.394     103.116
  H       13.167     217.841     102.453
  H       14.862     217.481     102.227
  H       14.171     218.918     101.512

 6  7  8  9  10  11  12  13  14  15  16  27  31  32  33  34  35 0
 6-311+G(2d,p)
 ****
 36  37 0
 6-311+G(2d,p)
 ****
 1  2  3  4  5  17  18  19  20  21  22  23  24  25 0
 3-21G
 ****
 26  28  29  30  38  39  40  41  42  43  44  45 0
 3-21G
 ****


