%nproc=1
%NoSave
%Mem=1900MB
#P OB98/GEN NMR

erre ene a

0 1
  C      597.697     610.680     829.482
  O      596.804     611.271     828.564
  H      598.093     609.744     829.078
  H      598.527     611.364     829.656
  H      597.187     610.493     830.432
  P      595.562     610.371     828.092
  C      594.383     611.125     830.276
  O      594.708     610.045     829.416
  C      593.049     610.857     830.966
  O      591.958     611.187     830.089
  C      592.819     609.404     831.363
  O      593.511     609.060     832.559
  C      591.307     609.408     831.580
  O      591.004     609.946     832.878
  C      590.822     610.372     830.480
  N      586.698     609.646     827.494
  C      586.889     610.389     828.616
  N      588.005     610.530     829.351
  C      589.019     609.807     828.843
  C      588.974     608.995     827.716
  C      587.749     608.929     827.025
  N      587.565     608.150     825.903
  N      590.208     608.415     827.485
  C      590.979     608.870     828.453
  N      590.300     609.704     829.305
  O      596.241     608.961     827.732
  O      594.778     610.906     826.942
  H      590.034     609.914     832.974
  H      595.771     608.569     826.971
  H      586.027     610.962     828.944
  H      592.022     608.619     828.573
  H      590.049     611.053     830.859
  H      590.864     608.412     831.526
  H      593.065     608.720     830.545
  H      592.983     611.517     831.846
  H      594.305     612.042     829.691
  H      586.735     608.293     825.348
  H      588.356     607.620     825.556
  H      595.180     611.242     831.018
  P      593.748     607.496     832.845
  C      595.897     607.585     831.389
  O      594.636     606.956     831.620
  O      592.319     606.850     832.576
  O      594.253     607.180     834.216
  H      592.218     606.022     833.078
  H      596.375     607.127     830.549
  H      596.515     607.474     832.255
  H      595.746     608.625     831.190

 6  7  8  9  10  11  12  13  14  15  25  28  32  33  34  35 0
 6-311+G(2d,p)
 ****
 36  39  40 0
 6-311+G(2d,p)
 ****
 1  2  3  4  5  16  17  18  19  20  21  22  23  24 0
 3-21G
 ****
 26  27  29  30  31  37  38  41  42  43  44  45  46  47  48 0
 3-21G
 ****


