%nproc=1
%NoSave
%Mem=1900MB
#P OB98/GEN NMR

erre ene a

0 1
  C      176.724    -188.491     328.962
  O      175.433    -188.414     329.542
  P      174.390    -189.624     329.410
  C      173.167    -188.355     327.520
  O      173.848    -189.542     327.905
  C      172.847    -188.398     326.030
  O      174.033    -188.082     325.271
  C      172.379    -189.755     325.519
  O      171.027    -190.001     325.883
  C      172.641    -189.611     324.026
  O      171.590    -188.856     323.404
  C      173.950    -188.791     324.013
  N      175.134    -189.617     323.797
  C      175.329    -190.102     322.500
  O      174.540    -189.830     321.596
  N      176.442    -190.864     322.242
  C      177.273    -191.139     323.200
  N      178.392    -191.843     322.867
  C      177.077    -190.702     324.592
  C      176.003    -189.947     324.816
  O      173.327    -189.654     330.455
  O      175.301    -190.936     329.378
  H      171.409    -188.089     323.986
  H      175.496    -191.306     330.274
  H      177.791    -190.967     325.354
  H      175.795    -189.566     325.807
  H      173.907    -188.023     323.230
  H      172.723    -190.567     323.504
  H      173.008    -190.555     325.928
  H      172.089    -187.629     325.816
  H      178.574    -191.972     321.880
  H      173.815    -187.497     327.727
  H      179.209    -191.849     323.469
  H      172.250    -188.258     328.117
  P      170.393    -191.409     325.469
  C      168.357    -190.440     324.187
  O      169.582    -191.147     324.107
  O      169.257    -191.639     326.573
  O      171.373    -192.539     325.425
  H      169.564    -192.265     327.254
  H      168.061    -190.144     323.179
  H      168.461    -189.546     324.806
  H      167.581    -191.093     324.602
  H      177.260    -187.587     329.163
  H      176.632    -188.624     327.904
  H      177.254    -189.321     329.381

 3  4  5  6  7  8  9  10  11  12  13  23  27  28  29  30  32 0
 6-311+G(2d,p)
 ****
 34  35 0
 6-311+G(2d,p)
 ****
 1  2  14  15  16  17  18  19  20  21  22  24  25  26 0
 3-21G
 ****
 31  33  36  37  38  39  40  41  42  43  44  45  46 0
 3-21G
 ****


