%nproc=1
%NoSave
%Mem=1900MB
#P OB98/GEN NMR

erre ene a

0 1
  C     -144.750     214.289    -104.999
  O     -143.563     213.996    -105.716
  H     -145.596     213.851    -105.536
  H     -144.903     215.369    -104.924
  H     -144.701     213.846    -104.001
  P     -142.216     214.758    -105.289
  C     -142.979     216.689    -106.825
  O     -142.518     216.321    -105.529
  C     -142.434     218.052    -107.243
  O     -142.537     219.002    -106.159
  C     -140.959     218.047    -107.618
  O     -140.648     217.325    -108.787
  C     -140.609     219.525    -107.541
  O     -140.967     220.233    -108.728
  C     -141.503     219.990    -106.360
  N     -140.732     220.222    -105.142
  C     -139.799     221.247    -105.197
  O     -139.584     221.921    -106.203
  N     -139.073     221.453    -104.048
  C     -139.165     220.721    -102.900
  O     -138.474     220.945    -101.914
  C     -140.147     219.624    -102.916
  C     -140.876     219.425    -104.014
  O     -140.959     214.274    -105.952
  O     -142.192     214.634    -103.694
  H     -140.902     221.181    -108.526
  H     -141.294     214.848    -103.332
  H     -138.400     222.207    -104.066
  H     -140.235     219.016    -102.025
  H     -141.614     218.626    -104.052
  H     -142.014     220.929    -106.616
  H     -139.540     219.692    -107.374
  H     -140.402     217.558    -106.806
  H     -143.050     218.428    -108.070
  H     -144.075     216.734    -106.793
  H     -142.678     215.923    -107.551
  P     -139.354     216.404    -108.944
  C     -137.922     218.094    -110.339
  O     -138.072     217.352    -109.132
  O     -139.479     215.214    -109.835
  O     -139.146     215.864    -107.434
  H     -138.788     214.957    -107.502
  H     -137.020     218.667    -110.295
  H     -138.757     218.752    -110.459
  H     -137.876     217.420    -111.169

 6  7  8  9  10  11  12  13  14  15  16  26  31  32  33  34  35 0
 6-311+G(2d,p)
 ****
 36  37 0
 6-311+G(2d,p)
 ****
 1  2  3  4  5  17  18  19  20  21  22  23  24  25 0
 3-21G
 ****
 27  28  29  30  38  39  40  41  42  43  44  45 0
 3-21G
 ****


