%nproc=1
%NoSave
%Mem=1900MB
#P OB98/GEN NMR

erre ene a

0 1
  C       -9.340     -39.681      96.027
  O       -8.699     -40.428      97.044
  H       -8.784     -38.753      95.873
  H      -10.363     -39.435      96.326
  H       -9.346     -40.249      95.094
  P       -9.383     -41.821      97.452
  C      -10.619     -41.731      99.725
  O      -10.648     -41.398      98.344
  C       -9.550     -40.917     100.449
  O       -9.635     -39.532     100.070
  C       -9.657     -40.950     101.969
  O       -9.034     -42.116     102.484
  C       -8.880     -39.696     102.342
  O       -7.467     -39.976     102.314
  C       -9.243     -38.722     101.207
  N      -10.655     -34.649     103.997
  C       -9.568     -35.450     104.065
  N       -9.284     -36.546     103.330
  C      -10.260     -36.786     102.436
  C      -11.425     -36.058     102.254
  C      -11.607     -34.938     103.081
  N      -12.718     -34.125     103.010
  N      -12.194     -36.606     101.247
  C      -11.474     -37.610     100.791
  N      -10.312     -37.784     101.500
  O       -8.471     -42.840      98.045
  O      -10.065     -42.243      96.065
  H       -7.236     -40.173     101.387
  H      -10.460     -41.468      95.629
  H       -8.830     -35.174     104.813
  H      -11.737     -38.229      99.940
  H       -8.380     -38.121     100.898
  H       -9.115     -39.339     103.346
  H      -10.694     -40.845     102.307
  H       -8.568     -41.284     100.120
  H      -10.418     -42.801      99.852
  H      -12.857     -33.467     103.762
  H      -13.481     -34.418     102.418
  H      -11.609     -41.514     100.140
  P       -9.427     -42.696     103.929
  C       -7.463     -42.740     105.587
  O       -8.456     -41.939     104.956
  O       -9.437     -44.181     104.016
  O      -10.855     -42.045     104.239
  H      -11.294     -42.534     104.962
  H       -6.879     -42.131     106.245
  H       -6.827     -43.172     104.843
  H       -7.936     -43.519     106.147

 6  7  8  9  10  11  12  13  14  15  25  28  32  33  34  35 0
 6-311+G(2d,p)
 ****
 36  39  40 0
 6-311+G(2d,p)
 ****
 1  2  3  4  5  16  17  18  19  20  21  22  23  24 0
 3-21G
 ****
 26  27  29  30  31  37  38  41  42  43  44  45  46  47 0
 3-21G
 ****
 48 0
 3-21G
 ****


