%nproc=1
%NoSave
%Mem=1900MB
#P OB98/GEN NMR

erre ene a

0 1
  C     -319.886     127.649     -30.304
  O     -320.813     127.427     -29.256
  H     -319.793     126.729     -30.890
  H     -318.907     127.902     -29.885
  H     -320.234     128.454     -30.956
  P     -321.120     128.679     -28.300
  C     -318.682     128.573     -27.371
  O     -319.695     129.356     -27.991
  C     -318.053     129.349     -26.206
  O     -317.512     130.602     -26.725
  C     -319.054     129.720     -25.099
  O     -318.350     129.774     -23.846
  C     -319.462     131.126     -25.503
  O     -320.082     131.794     -24.429
  C     -318.106     131.668     -25.958
  N     -318.069     136.765     -25.774
  C     -317.859     135.824     -24.826
  N     -317.875     134.483     -24.955
  C     -318.120     134.137     -26.232
  C     -318.362     134.978     -27.305
  C     -318.334     136.357     -27.040
  N     -318.573     137.319     -27.996
  N     -318.601     134.246     -28.454
  C     -318.501     132.979     -28.080
  N     -318.210     132.871     -26.745
  O     -321.521     127.985     -26.912
  O     -322.171     129.621     -28.782
  H     -319.567     131.688     -23.605
  H     -322.492     127.873     -26.866
  H     -317.642     136.207     -23.827
  H     -318.634     132.119     -28.718
  H     -317.441     131.884     -25.108
  H     -320.175     131.109     -26.336
  H     -319.890     129.019     -25.018
  H     -317.209     128.776     -25.809
  H     -317.921     128.336     -28.119
  H     -319.127     127.643     -26.992
  H     -318.565     138.287     -27.715
  H     -318.807     137.030     -28.939
  P     -318.689     128.681     -22.710
  C     -320.925     129.388     -21.553
  O     -320.276     128.563     -22.509
  O     -318.240     129.452     -21.373
  O     -317.961     127.384     -22.829
  H     -317.715     128.848     -20.804
  H     -321.974     129.177     -21.553
  H     -320.768     130.416     -21.804
  H     -320.522     129.193     -20.581

 6  7  8  9  10  11  12  13  14  15  25  28  32  33  34  35 0
 6-311+G(2d,p)
 ****
 36  37  40 0
 6-311+G(2d,p)
 ****
 1  2  3  4  5  16  17  18  19  20  21  22  23  24 0
 3-21G
 ****
 26  27  29  30  31  38  39 41  42  43  44  45  46  47  48 0
 3-21G
 ****


