%nproc=1
%NoSave
%Mem=1900MB
#P OB98/GEN NMR

erre ene a

0 1
  C      133.938     137.631     160.733
  O      132.623     137.598     161.297
  P      131.703     138.896     161.055
  C      132.264     140.387     163.114
  O      132.454     140.146     161.727
  C      133.332     141.341     163.647
  O      134.650     140.787     163.488
  C      133.378     142.688     162.940
  O      132.364     143.564     163.406
  C      134.756     143.187     163.345
  O      134.692     143.789     164.652
  C      135.581     141.890     163.388
  N      140.291     142.042     161.518
  C      139.836     142.322     162.796
  N      140.771     142.656     163.710
  N      138.575     142.265     163.144
  C      137.756     141.885     162.134
  C      138.087     141.590     160.833
  C      139.478     141.682     160.453
  O      139.932     141.482     159.328
  N      136.983     141.234     160.101
  C      135.988     141.288     160.968
  N      136.406     141.694     162.213
  O      130.461     138.645     162.034
  O      131.271     139.079     159.639
  H      133.913     144.381     164.659
  H      129.669     139.103     161.695
  H      141.270     142.109     161.305
  H      134.956     141.043     160.745
  H      136.227     141.851     164.274
  H      135.147     143.953     162.665
  H      141.765     142.646     163.528
  H      133.338     142.558     161.850
  H      140.457     142.828     164.658
  H      133.146     141.489     164.720
  H      132.312     139.446     163.664
  H      131.258     140.796     163.270
  P      130.987     143.598     162.584
  C      130.936     146.040     161.719
  O      131.199     144.683     161.429
  O      129.976     144.304     163.604
  O      130.495     142.254     162.148
  H      129.062     143.998     163.446
  H      131.331     146.321     162.696
  H      129.857     146.219     161.694
  H      131.411     146.662     160.957
  H      134.447     136.718     160.961
  H      134.482     138.455     161.145
  H      133.868     137.745     159.671

 3  4  5  6  7  8  9  10  11  12  23  26  30  31  33  0
 6-311+G(2d,p)
 ****
 35  36  37  38 0
 6-311+G(2d,p)
 ****
 1  2  13  14  15  16  17  18  19  20  21  22  24  25  27  28  29 0
 3-21G
 ****
 32  34  39  40  41  42  43  44  45  46  47  48  49 0
 3-21G
 ****


