%nproc=1
%NoSave
%Mem=1900MB
#P OB98/GEN NMR

erre ene a

0 1
  C       80.952    -196.076    -213.148
  O       79.572    -195.702    -213.162
  P       78.533    -196.685    -212.432
  C       76.863    -196.855    -214.435
  O       77.107    -196.405    -213.115
  C       75.374    -196.745    -214.783
  O       74.580    -197.430    -213.768
  C       74.852    -195.307    -214.891
  O       73.893    -195.290    -215.957
  C       74.161    -195.093    -213.557
  O       73.200    -194.048    -213.616
  C       73.584    -196.491    -213.311
  N       73.234    -196.718    -211.911
  C       71.881    -196.776    -211.601
  O       70.997    -196.568    -212.430
  N       71.576    -197.037    -210.294
  C       72.475    -197.164    -209.272
  O       72.147    -197.396    -208.116
  C       73.887    -196.980    -209.641
  C       74.195    -196.767    -210.923
  O       78.423    -196.012    -210.988
  O       78.978    -198.110    -212.436
  H       78.453    -195.040    -211.009
  H       72.540    -194.259    -214.307
  H       70.601    -197.115    -210.053
  H       74.624    -197.014    -208.848
  H       75.222    -196.606    -211.223
  H       72.686    -196.646    -213.921
  H       74.901    -194.840    -212.790
  H       75.645    -194.580    -215.095
  H       75.209    -197.271    -215.731
  H       77.172    -197.900    -214.535
  H       77.476    -196.273    -215.133
  P       73.727    -193.936    -216.812
  C       71.161    -194.263    -217.214
  O       72.452    -194.133    -217.762
  O       74.960    -194.092    -217.826
  O       73.789    -192.675    -216.016
  H       75.011    -194.976    -218.230
  H       70.426    -194.147    -218.015
  H       70.972    -193.496    -216.458
  H       71.044    -195.256    -216.771
  H       81.527    -195.337    -213.666
  H       81.070    -197.023    -213.632
  H       81.292    -196.147    -212.136

 3  4  5  6  7  8  9  10  11  12  13  24  28  29  30  31  32 0
 6-311+G(2d,p)
 ****
 33  34 0
 6-311+G(2d,p)
 ****
 1  2  14  15  16  17  18  19  20  21  22  23  25  26  27 0
 3-21G
 ****
 35  36  37  38  39  40  41  42  43  44  45 0
 3-21G
 ****


