%nproc=1
%NoSave
%Mem=1900MB
#P OB98/GEN NMR

erre ene a

0 1
  C      -73.876    -584.641    -255.098
  O      -73.944    -586.068    -254.988
  P      -73.748    -586.930    -256.325
  C      -71.517    -588.029    -255.556
  O      -72.184    -587.224    -256.513
  C      -70.000    -587.959    -255.763
  O      -69.552    -586.603    -255.944
  C      -69.203    -588.516    -254.591
  O      -69.087    -589.925    -254.651
  C      -67.843    -587.867    -254.834
  O      -67.129    -588.612    -255.853
  C      -68.226    -586.476    -255.365
  N      -65.888    -582.369    -253.550
  C      -65.588    -583.150    -254.661
  N      -64.519    -582.773    -255.391
  N      -66.288    -584.205    -255.014
  C      -67.338    -584.448    -254.191
  C      -67.724    -583.755    -253.071
  C      -66.942    -582.599    -252.682
  O      -67.141    -581.883    -251.712
  N      -68.833    -584.305    -252.489
  C      -69.139    -585.334    -253.276
  N      -68.245    -585.465    -254.320
  O      -74.061    -585.875    -257.485
  O      -74.649    -588.132    -256.418
  H      -67.145    -589.541    -255.568
  H      -74.401    -586.330    -258.273
  H      -65.316    -581.573    -253.325
  H      -69.983    -585.986    -253.137
  H      -67.550    -586.128    -256.150
  H      -67.211    -587.869    -253.945
  H      -63.976    -581.953    -255.207
  H      -69.609    -588.169    -253.633
  H      -64.307    -583.316    -256.226
  H      -69.760    -588.539    -256.666
  H      -71.856    -589.068    -255.644
  H      -71.804    -587.700    -254.547
  P      -70.218    -590.808    -253.923
  C      -71.155    -591.851    -256.109
  O      -71.387    -591.002    -255.006
  O      -70.840    -589.777    -252.868
  O      -69.726    -592.038    -253.256
  H      -71.154    -590.251    -252.068
  H      -72.099    -591.999    -256.644
  H      -70.789    -592.828    -255.771
  H      -70.428    -591.394    -256.792
  H      -74.024    -584.202    -254.134
  H      -74.638    -584.298    -255.767
  H      -72.916    -584.358    -255.476

 3  4  5  6  7  8  9  10  11  12  23  26  30  31 0
 6-311+G(2d,p)
 ****
 33  35  36  37  38 0
 6-311+G(2d,p)
 ****
 1  2  13  14  15  16  17  18  19  20  21  22  24  25 0
 3-21G
 ****
 27  28  29  32  34  39  40  41  42  43  44  45  46  47  48  49 0
 3-21G
 ****


