%nproc=1
%NoSave
%Mem=1900MB
#P OB98/GEN NMR

erre ene a

0 1
  C     -190.682    -617.061     219.134
  O     -190.703    -618.464     218.951
  H     -191.676    -616.664     218.911
  H     -189.964    -616.599     218.448
  H     -190.428    -616.811     220.169
  P     -189.353    -619.289     219.209
  C     -189.451    -620.130     216.762
  O     -188.697    -619.445     217.748
  C     -188.542    -621.071     215.965
  O     -187.392    -620.369     215.441
  C     -187.958    -622.227     216.769
  O     -188.893    -623.244     217.069
  C     -186.882    -622.695     215.796
  O     -187.492    -623.435     214.726
  C     -186.322    -621.342     215.307
  N     -185.138    -620.912     216.060
  C     -184.130    -620.279     215.330
  O     -184.239    -620.106     214.120
  N     -182.987    -619.879     215.992
  C     -182.865    -620.113     217.262
  N     -181.712    -619.699     217.862
  C     -183.898    -620.800     218.063
  C     -185.000    -621.163     217.414
  O     -189.498    -620.560     219.987
  O     -188.359    -618.232     219.898
  H     -188.274    -622.934     214.446
  H     -187.512    -618.697     220.091
  H     -183.727    -620.999     219.113
  H     -185.795    -621.676     217.929
  H     -186.061    -621.392     214.239
  H     -186.139    -623.349     216.265
  H     -187.463    -621.859     217.676
  H     -189.123    -621.431     215.101
  H     -181.022    -619.240     217.292
  H     -189.917    -619.386     216.108
  H     -181.494    -619.915     218.833
  H     -190.234    -620.728     217.237
  P     -188.978    -623.716     218.614
  C     -187.236    -625.660     218.417
  O     -187.561    -624.385     218.958
  O     -189.994    -624.953     218.551
  O     -189.414    -622.655     219.582
  H     -190.891    -624.671     218.818
  H     -186.261    -625.950     218.748
  H     -187.249    -625.608     217.348
  H     -187.954    -626.381     218.748

 6  7  8  9  10  11  12  13  14  15  16  26  30  31  32  33  35 0
 6-311+G(2d,p)
 ****
 37  38 0
 6-311+G(2d,p)
 ****
 1  2  3  4  5  17  18  19  20  21  22  23  24  25 0
 3-21G
 ****
 27  28  29  34  36  39  40  41  42  43  44  45  46 0
 3-21G
 ****


