%nproc=1
%NoSave
%Mem=1900MB
#P OB98/GEN NMR

erre ene a

0 1
  C       76.079     176.774    -206.522
  O       76.209     175.653    -207.405
  P       77.457     175.487    -208.400
  C       78.567     173.674    -206.953
  O       78.714     174.955    -207.555
  C       79.699     173.378    -205.948
  O       79.483     174.127    -204.714
  C       79.821     171.914    -205.535
  O       80.503     171.181    -206.530
  C       80.580     172.050    -204.209
  O       81.984     172.219    -204.437
  C       79.961     173.326    -203.614
  N       77.717     174.996    -199.340
  C       78.736     175.489    -200.074
  N       79.283     174.977    -201.206
  C       78.642     173.849    -201.572
  C       77.594     173.230    -200.919
  C       77.122     173.844    -199.745
  N       76.091     173.330    -198.994
  N       77.224     172.072    -201.593
  C       78.023     172.024    -202.632
  N       78.904     173.076    -202.665
  O       77.748     176.697    -209.231
  O       77.075     174.238    -209.328
  H       82.428     172.092    -203.587
  H       77.518     174.325    -210.191
  H       79.169     176.413    -199.707
  H       78.008     171.238    -203.387
  H       80.728     173.931    -203.100
  H       80.455     171.176    -203.566
  H       78.826     171.497    -205.345
  H       80.636     173.741    -206.375
  H       78.596     172.909    -207.745
  H       75.831     173.807    -198.149
  H       75.673     172.443    -199.258
  H       77.603     173.628    -206.447
  P       79.687     170.162    -207.475
  C       80.316     171.531    -209.555
  O       79.266     170.991    -208.796
  O       78.564     169.424    -206.813
  O       80.795     169.169    -208.025
  H       80.390     168.296    -208.196
  H       80.681     172.446    -209.093
  H       79.956     171.750    -210.560
  H       81.154     170.820    -209.629
  H       75.177     176.679    -205.955
  H       76.046     177.677    -207.095
  H       76.917     176.803    -205.857

 3  4  5  6  7  8  9  10  11  12  22  25  29  30  31  32 0
 6-311+G(2d,p)
 ****
 33  36  37 0
 6-311+G(2d,p)
 ****
 1  2  13  14  15  16  17  18  19  20  21  23  24  26 0
 3-21G
 ****
 27  28  34  35  38  39  40  41  42  43  44  45  46  47  48 0
 3-21G
 ****


