%nproc=1
%NoSave
%Mem=1900MB
#P OB98/GEN NMR

erre ene a

0 1
  C     -186.403      19.289     -54.334
  O     -185.975      18.099     -53.703
  H     -185.651      19.609     -55.059
  H     -187.338      19.090     -54.864
  H     -186.574      20.079     -53.599
  P     -184.790      18.223     -52.627
  C     -185.805      16.827     -50.685
  O     -184.848      16.884     -51.734
  C     -186.374      15.413     -50.559
  O     -187.300      15.188     -51.659
  C     -185.312      14.299     -50.601
  O     -185.691      13.278     -49.673
  C     -185.441      13.751     -52.015
  O     -185.005      12.399     -52.122
  C     -186.935      13.936     -52.271
  N     -187.164      10.984     -56.408
  C     -187.131      10.693     -55.090
  N     -187.126      11.545     -54.045
  C     -187.225      12.817     -54.472
  C     -187.273      13.273     -55.778
  C     -187.222      12.286     -56.780
  N     -187.183      12.580     -58.127
  N     -187.315      14.655     -55.808
  C     -187.271      15.023     -54.542
  N     -187.212      13.949     -53.697
  O     -185.343      19.356     -51.638
  O     -183.448      18.571     -53.181
  H     -184.894      12.177     -53.068
  H     -185.087      20.235     -51.973
  H     -187.096       9.631     -54.843
  H     -187.245      16.048     -54.189
  H     -187.544      13.141     -51.823
  H     -184.843      14.363     -52.700
  H     -184.297      14.645     -50.381
  H     -186.955      15.354     -49.631
  H     -186.624      17.520     -50.912
  H     -187.037      11.816     -58.768
  H     -187.116      13.543     -58.417
  H     -185.331      17.130     -49.747
  P     -184.871      13.194     -48.295
  C     -187.085      12.944     -46.942
  O     -185.778      12.445     -47.206
  O     -184.861      14.715     -47.785
  O     -183.487      12.652     -48.446
  H     -184.033      14.899     -47.299
  H     -187.555      12.337     -46.197
  H     -187.665      12.918     -47.841
  H     -187.018      13.952     -46.590

 6  7  8  9  10  11  12  13  14  15  25  28  32  33  34  35 0
 6-311+G(2d,p)
 ****
 36  39  40 0
 6-311+G(2d,p)
 ****
 1  2  3  4  5  16  17  18  19  20  21  22  23  24 0
 3-21G
 ****
 26  27  29  30  31  37  38  41  42  43  44  45  46  47 0
 3-21G
 ****
 48 0
 3-21G
 ****


