%nproc=1
%NoSave
%Mem=1900MB
#P OB98/GEN NMR

erre ene a

0 1
  C      155.626      66.845      32.736
  O      154.341      66.649      32.182
  H      155.623      67.776      33.309
  H      156.374      66.921      31.942
  H      155.877      66.017      33.405
  P      154.168      65.385      31.205
  C      154.283      67.043      29.194
  O      154.817      65.888      29.823
  C      155.046      67.338      27.908
  O      156.445      67.573      28.188
  C      155.026      66.205      26.886
  O      153.809      66.117      26.166
  C      156.179      66.634      25.997
  O      155.766      67.738      25.170
  C      157.212      67.083      27.054
  N      158.112      66.004      27.469
  C      159.197      65.733      26.628
  O      159.368      66.377      25.595
  N      160.050      64.708      26.960
  C      159.852      64.026      28.045
  N      160.729      63.022      28.319
  C      158.732      64.285      28.965
  C      157.911      65.275      28.622
  O      152.602      65.382      30.876
  O      154.697      64.087      31.713
  H      156.507      67.924      24.564
  H      152.409      64.728      30.161
  H      158.600      63.682      29.853
  H      157.064      65.526      29.251
  H      157.817      67.919      26.682
  H      156.526      65.848      25.327
  H      155.276      65.242      27.348
  H      154.638      68.263      27.482
  H      161.452      62.830      27.638
  H      154.376      67.886      29.889
  H      160.575      62.344      29.053
  H      153.226      66.890      28.962
  P      153.307      64.651      25.743
  C      154.085      64.971      23.279
  O      154.181      64.208      24.476
  O      151.863      64.926      25.119
  O      153.256      63.657      26.862
  H      151.253      64.185      25.307
  H      154.726      64.548      22.534
  H      154.383      65.980      23.474
  H      153.074      64.959      22.929

 6  7  8  9  10  11  12  13  14  15  16  26  30  31  32  33  35 0
 6-311+G(2d,p)
 ****
 37  38 0
 6-311+G(2d,p)
 ****
 1  2  3  4  5  17  18  19  20  21  22  23  24  25 0
 3-21G
 ****
 27  28  29  34  36  39  40  41  42  43  44  45  46 0
 3-21G
 ****


