%nproc=1
%NoSave
%Mem=1900MB
#P OB98/GEN NMR

erre ene a

0 1
  C      416.586     194.598     302.484
  O      416.786     193.304     301.935
  P      417.951     193.135     300.843
  C      418.035     193.498     298.271
  O      417.425     193.856     299.507
  C      417.003     193.421     297.145
  O      416.155     192.266     297.362
  C      416.101     194.651     297.032
  O      415.856     194.892     295.647
  C      414.814     194.210     297.693
  O      413.694     194.963     297.228
  C      414.787     192.716     297.330
  N      413.946     191.943     298.239
  C      412.582     191.871     297.933
  O      412.130     192.511     296.982
  N      411.762     191.125     298.739
  C      412.235     190.584     299.817
  N      411.384     189.850     300.577
  C      413.645     190.735     300.241
  C      414.435     191.401     299.403
  O      417.873     191.581     300.477
  O      419.306     193.542     301.312
  H      413.891     195.917     297.355
  H      418.757     191.232     300.250
  H      413.981     190.296     301.167
  H      415.487     191.546     299.619
  H      414.414     192.577     296.305
  H      414.884     194.338     298.782
  H      416.548     195.544     297.487
  H      417.538     193.253     296.201
  H      410.423     189.770     300.275
  H      418.500     192.515     298.376
  H      411.666     189.395     301.437
  H      418.816     194.223     298.028
  P      415.784     196.417     295.154
  C      414.247     198.407     295.679
  O      414.554     197.055     295.961
  O      415.150     196.247     293.689
  O      417.049     197.205     295.110
  H      415.113     197.116     293.246
  H      413.315     198.667     296.189
  H      414.122     198.556     294.607
  H      415.049     199.053     296.059
  H      415.785     194.565     303.192
  H      416.341     195.284     301.700
  H      417.481     194.920     302.973

 3  4  5  6  7  8  9  10  11  12  13  21  23  27  28  29  30  32 0
 6-311+G(2d,p)
 ****
 34  35 0
 6-311+G(2d,p)
 ****
 1  2  14  15  16  17  18  19  20  22  24  25  26 0
 3-21G
 ****
 31  33  36  37  38  39  40  41  42  43  44  45  46 0
 3-21G
 ****


