%nproc=1
%NoSave
%Mem=1900MB
#P OB98/GEN NMR

erre ene a

0 1
  C     -899.190    -898.040    -895.760
  O     -898.160    -898.950    -896.090
  H     -900.000    -898.100    -896.500
  H     -899.590    -898.300    -894.780
  H     -898.800    -897.020    -895.730
  P     -897.460    -898.760    -897.520
  C     -894.910    -898.770    -896.970
  O     -896.080    -898.000    -897.220
  C     -893.690    -897.860    -897.060
  O     -893.580    -897.300    -898.390
  C     -893.720    -896.680    -896.100
  O     -893.300    -897.020    -894.790
  C     -892.730    -895.760    -896.780
  O     -891.380    -896.180    -896.510
  C     -893.080    -895.950    -898.260
  N     -894.280    -890.990    -898.780
  C     -893.190    -891.610    -898.260
  N     -892.930    -892.930    -898.190
  C     -893.940    -893.650    -898.710
  C     -895.120    -893.160    -899.250
  C     -895.270    -891.760    -899.270
  N     -896.400    -891.140    -899.760
  N     -895.930    -894.200    -899.660
  C     -895.250    -895.290    -899.370
  N     -894.060    -895.010    -898.760
  O     -898.340    -897.640    -898.240
  O     -897.310    -900.000    -898.340
  H     -890.790    -895.490    -896.860
  H     -898.150    -897.610    -899.190
  H     -892.410    -890.950    -897.880
  H     -895.570    -896.300    -899.580
  H     -892.180    -895.860    -898.910
  H     -892.800    -894.710    -896.420
  H     -894.710    -896.200    -896.100
  H     -892.790    -898.480    -896.890
  H     -894.840    -899.560    -897.720
  H     -896.490    -890.150    -899.590
  H     -897.210    -891.690    -900.000
  H     -894.980    -899.220    -895.980
  P     -893.840    -896.100    -893.590
  C     -896.220    -897.160    -893.840
  O     -895.430    -895.960    -893.810
  O     -893.290    -894.660    -893.970
  O     -893.400    -896.550    -892.220
  H     -893.090    -894.140    -893.160
  H     -897.248    -896.906    -893.992
  H     -896.115    -897.680    -892.911
  H     -895.885    -897.788    -894.639

 6  7  8  9  10  11  12  13  14  15  25  28  32  33  34  35 0
 6-311+G(2d,p)
 ****
 36  39  40 0
 6-311+G(2d,p)
 ****
 1  2  3  4  5  16  17  18  19  20  21  22  23  24 0
 3-21G
 ****
 26  27  29  30  31  37  38  41  42  43  44  45  46  47 0
 3-21G
 ****
 48 0
 3-21G
 ****


