%nproc=1
%NoSave
%Mem=1900MB
#P OB98/GEN NMR

erre ene a

0 1
  C     -202.384    -303.343    -143.727
  O     -201.797    -302.854    -142.540
  H     -202.131    -302.671    -144.549
  H     -203.471    -303.364    -143.615
  H     -202.014    -304.346    -143.962
  P     -201.778    -303.838    -141.275
  C     -199.350    -303.278    -140.563
  O     -200.726    -303.230    -140.221
  C     -198.939    -301.998    -141.291
  O     -199.240    -300.862    -140.440
  C     -197.446    -301.936    -141.641
  O     -197.297    -301.324    -142.924
  C     -196.871    -301.027    -140.571
  O     -195.672    -300.376    -140.990
  C     -198.038    -300.078    -140.321
  N     -196.638    -295.911    -137.859
  C     -196.682    -296.176    -139.214
  N     -196.286    -295.183    -140.039
  N     -197.078    -297.316    -139.716
  C     -197.480    -298.202    -138.774
  C     -197.478    -298.063    -137.407
  C     -197.010    -296.808    -136.861
  O     -196.927    -296.522    -135.672
  N     -197.929    -299.205    -136.792
  C     -198.200    -300.030    -137.786
  N     -197.949    -299.466    -139.007
  O     -201.037    -305.140    -141.836
  O     -203.116    -304.175    -140.705
  H     -195.338    -299.855    -140.229
  H     -201.652    -305.897    -141.833
  H     -196.310    -295.020    -137.526
  H     -198.568    -301.040    -137.677
  H     -198.081    -299.266    -141.055
  H     -196.642    -301.612    -139.673
  H     -196.015    -294.266    -139.723
  H     -196.966    -302.917    -141.649
  H     -196.344    -295.340    -141.038
  H     -199.556    -301.893    -142.191
  H     -199.175    -304.139    -141.217
  H     -198.753    -303.394    -139.652
  P     -197.158    -302.306    -144.187
  C     -197.401    -300.424    -145.948
  O     -196.584    -301.459    -145.424
  O     -198.676    -302.591    -144.597
  O     -196.426    -303.574    -143.887
  H     -198.921    -303.505    -144.357
  H     -196.895    -299.948    -146.762
  H     -197.600    -299.704    -145.182
  H     -198.324    -300.839    -146.295

 6  7  8  9  10  11  12  13  14  15  26  29  33  34 0
 6-311+G(2d,p)
 ****
 36  38  39  40  41 0
 6-311+G(2d,p)
 ****
 1  2  3  4  5  16  17  18  19  20  21  22  23  24  25 0
 3-21G
 ****
 27  28  30  31  32  35  37  42  43  44  45  46  47 0
 3-21G
 ****
 48  49 0
 3-21G
 ****


