%nproc=1
%NoSave
%Mem=1900MB
#P OB98/GEN NMR

erre ene a

0 1
  C      342.453     -23.710    -136.922
  O      341.488     -23.265    -137.849
  H      343.339     -24.038    -137.470
  H      342.058     -24.557    -136.354
  H      342.742     -22.910    -136.236
  P      340.228     -22.436    -137.315
  C      341.118     -20.179    -138.196
  O      340.725     -20.933    -137.058
  C      341.557     -18.768    -137.788
  O      342.411     -18.860    -136.618
  C      342.382     -18.096    -138.890
  O      342.267     -16.676    -138.857
  C      343.806     -18.485    -138.528
  O      344.785     -17.598    -139.068
  C      343.742     -18.479    -137.002
  N      348.558     -19.138    -135.469
  C      348.020     -18.133    -136.248
  N      348.879     -17.177    -136.671
  N      346.762     -18.084    -136.599
  C      346.036     -19.142    -136.165
  C      346.462     -20.209    -135.407
  C      347.849     -20.235    -134.996
  O      348.383     -21.113    -134.326
  N      345.440     -21.094    -135.170
  C      344.401     -20.567    -135.786
  N      344.707     -19.368    -136.383
  O      340.018     -22.988    -135.826
  O      338.977     -22.563    -138.130
  H      344.700     -17.628    -140.039
  H      339.104     -22.827    -135.530
  H      349.527     -19.114    -135.203
  H      343.409     -21.000    -135.816
  H      343.927     -17.471    -136.611
  H      344.005     -19.476    -138.941
  H      349.878     -17.287    -136.589
  H      342.121     -18.449    -139.885
  H      348.579     -16.625    -137.479
  H      340.685     -18.172    -137.497
  H      340.254     -20.135    -138.863
  H      341.916     -20.692    -138.734
  P      341.178     -15.973    -139.797
  C      339.442     -15.424    -137.877
  O      339.740     -16.045    -139.108
  O      341.055     -16.966    -141.042
  O      341.535     -14.583    -140.222
  H      341.363     -16.529    -141.857
  H      338.420     -15.612    -137.621
  H      339.600     -14.369    -137.962
  H      340.079     -15.820    -137.114

 6  7  8  9  10  11  12  13  14  15  26  29  33  34 0
 6-311+G(2d,p)
 ****
 36  38  39  40  41 0
 6-311+G(2d,p)
 ****
 1  2  3  4  5  16  17  18  19  20  21  22  23  24  25 0
 3-21G
 ****
 27  28  30  31  32  35  37  42  43  44  45  46  47 0
 3-21G
 ****
 48  49 0
 3-21G
 ****


