%nproc=1
%NoSave
%Mem=1900MB
#P OB98/GEN NMR

erre ene a

0 1
  C     -329.548     488.190    -899.080
  O     -330.464     488.496    -898.050
  H     -329.886     488.687    -900.000
  H     -329.532     487.108    -899.270
  H     -328.546     488.537    -898.840
  P     -330.130     488.012    -896.560
  C     -332.376     486.816    -896.090
  O     -330.970     486.672    -896.300
  C     -333.042     485.443    -895.990
  O     -333.105     484.836    -897.310
  C     -332.247     484.439    -895.120
  O     -332.464     484.711    -893.730
  C     -332.847     483.127    -895.610
  O     -334.119     482.872    -894.990
  C     -333.009     483.395    -897.140
  N     -331.919     482.830    -897.940
  C     -331.982     481.486    -898.180
  O     -332.872     480.733    -897.720
  N     -330.953     480.970    -898.930
  C     -329.862     481.651    -899.380
  O     -328.921     481.108    -899.990
  C     -329.837     483.080    -899.060
  C     -330.852     483.609    -898.380
  O     -330.267     489.065    -895.490
  O     -328.621     487.489    -896.670
  H     -334.474     482.080    -895.410
  H     -328.012     488.133    -896.260
  H     -330.965     479.960    -899.110
  H     -328.990     483.662    -899.410
  H     -330.856     484.663    -898.150
  H     -333.971     482.997    -897.490
  H     -332.195     482.270    -895.390
  H     -331.190     484.472    -895.380
  H     -334.055     485.571    -895.610
  H     -332.820     487.381    -896.920
  H     -332.539     487.382    -895.140
  P     -331.585     483.925    -892.630
  C     -333.775     483.131    -891.510
  O     -332.469     482.749    -892.010
  O     -330.890     484.796    -891.630
  O     -330.483     483.133    -893.530
  H     -329.584     483.442    -893.280
  H     -334.274     482.268    -891.121
  H     -334.354     483.549    -892.307
  H     -333.661     483.858    -890.733

 6  7  8  9  10  11  12  13  14  15  16  26  31  32  33  34  35 0
 6-311+G(2d,p)
 ****
 36  37 0
 6-311+G(2d,p)
 ****
 1  2  3  4  5  17  18  19  20  21  22  23  24  25 0
 3-21G
 ****
 27  28  29  30  38  39  40  41  42  43  44  45 0
 3-21G
 ****


