%nproc=1
%NoSave
%Mem=1900MB
#P OB98/GEN NMR

erre ene a

0 1
  C      111.546    -103.700     127.723
  O      112.849    -104.277     127.575
  P      113.299    -104.753     126.109
  C      112.894    -106.829     124.590
  O      112.817    -106.267     125.891
  C      113.437    -108.263     124.649
  O      114.839    -108.286     124.989
  C      112.756    -109.132     125.694
  O      111.525    -109.660     125.210
  C      113.777    -110.246     125.866
  O      113.654    -111.197     124.788
  C      115.107    -109.486     125.750
  N      119.389    -108.107     128.214
  C      119.159    -108.454     126.926
  N      117.994    -108.824     126.350
  C      116.995    -108.808     127.245
  C      117.076    -108.479     128.593
  C      118.340    -108.118     129.080
  N      118.567    -107.764     130.389
  N      115.839    -108.591     129.197
  C      115.023    -108.959     128.233
  N      115.678    -109.112     127.039
  O      114.889    -104.890     126.246
  O      112.924    -103.800     125.018
  H      112.731    -111.515     124.794
  H      115.317    -104.646     125.405
  H      120.024    -108.421     126.268
  H      113.962    -109.127     128.347
  H      115.870    -110.064     125.209
  H      113.641    -110.804     126.799
  H      112.629    -108.584     126.640
  H      113.315    -108.714     123.657
  H      113.535    -106.214     123.952
  H      119.501    -107.488     130.656
  H      117.788    -107.748     131.029
  H      111.897    -106.808     124.133
  P      110.185    -109.197     125.962
  C      109.090    -109.794     128.241
  O      110.142    -110.034     127.327
  O      109.032    -109.848     125.064
  O      110.029    -107.717     126.092
  H      108.223    -109.299     125.102
  H      109.032    -110.631     128.942
  H      108.127    -109.703     127.727
  H      109.291    -108.878     128.804
  H      111.388    -103.433     128.747
  H      110.805    -104.410     127.421
  H      111.472    -102.825     127.111

 3  4  5  6  7  8  9  10  11  12  22  25  29  30  31  32 0
 6-311+G(2d,p)
 ****
 33  36  37 0
 6-311+G(2d,p)
 ****
 1  2  13  14  15  16  17  18  19  20  21  23  24  26 0
 3-21G
 ****
 27  28  34  35  38  39  40  41  42  43  44  45  46  47  48 0
 3-21G
 ****


