%nproc=1
%NoSave
%Mem=1900MB
#P OB98/GEN NMR

erre ene a

0 1
  C      -83.636     914.326     412.059
  O      -84.045     913.192     411.314
  P      -82.898     912.313     410.604
  C      -83.617     912.007     408.119
  O      -83.625     911.481     409.434
  C      -83.808     910.892     407.091
  O      -82.707     909.966     407.138
  C      -85.047     910.036     407.318
  O      -86.228     910.646     406.814
  C      -84.703     908.797     406.515
  O      -84.969     909.040     405.120
  C      -83.188     908.657     406.771
  N      -83.330     903.780     408.084
  C      -83.545     904.358     406.859
  N      -83.903     903.527     405.847
  N      -83.417     905.645     406.632
  C      -83.061     906.352     407.736
  C      -82.812     905.885     409.011
  C      -82.961     904.459     409.241
  O      -82.842     903.877     410.323
  N      -82.462     906.905     409.860
  C      -82.500     907.975     409.103
  N      -82.898     907.703     407.828
  O      -82.555     911.187     411.696
  O      -81.673     913.083     410.194
  H      -84.610     908.271     404.627
  H      -81.691     910.772     411.490
  H      -83.438     902.776     408.208
  H      -82.259     908.969     409.465
  H      -82.662     908.353     405.864
  H      -85.307     907.923     406.801
  H      -84.076     902.543     405.972
  H      -85.160     909.766     408.374
  H      -84.129     903.951     404.948
  H      -83.819     911.350     406.093
  H      -82.660     912.531     407.935
  H      -84.427     912.757     408.030
  P      -87.494     910.688     407.798
  C      -89.015     910.391     405.713
  O      -88.740     911.131     406.875
  O      -87.221     911.982     408.698
  O      -87.681     909.456     408.625
  H      -87.668     911.907     409.562
  H      -90.025     910.673     405.343
  H      -88.991     909.308     405.902
  H      -88.289     910.629     404.918
  H      -84.496     914.811     412.471
  H      -83.117     915.006     411.417
  H      -82.987     914.017     412.851

 3  4  5  6  7  8  9  10  11  12  23  26  30  31 0
 6-311+G(2d,p)
 ****
 33  35  36  37  38 0
 6-311+G(2d,p)
 ****
 1  2  13  14  15  16  17  18  19  20  21  22  24  25 0
 3-21G
 ****
 27  28  29  32  34  39  40  41  42  43  44  45  46  47  48  49 0
 3-21G
 ****


