%nproc=1
%NoSave
%Mem=1900MB
#P OB98/GEN NMR

erre ene a

0 1
  C     -216.105    -815.955     411.436
  O     -215.946    -817.326     411.762
  H     -216.501    -815.415     412.300
  H     -215.125    -815.539     411.173
  H     -216.776    -815.841     410.581
  P     -217.288    -818.173     412.007
  C     -216.609    -820.120     410.424
  O     -216.889    -819.709     411.757
  C     -216.218    -821.605     410.389
  O     -214.842    -821.737     410.817
  C     -217.079    -822.481     411.313
  O     -217.323    -823.738     410.670
  C     -216.188    -822.690     412.532
  O     -216.521    -823.885     413.236
  C     -214.804    -822.700     411.896
  N     -210.687    -824.440     414.376
  C     -211.455    -824.978     413.399
  N     -212.536    -824.452     412.794
  C     -212.766    -823.200     413.240
  C     -212.067    -822.517     414.231
  C     -210.986    -823.191     414.814
  N     -210.223    -822.659     415.825
  N     -212.634    -821.267     414.439
  C     -213.652    -821.204     413.592
  N     -213.770    -822.352     412.855
  O     -218.165    -817.799     410.719
  O     -218.009    -817.892     413.281
  H     -216.568    -824.619     412.591
  H     -218.583    -816.925     410.854
  H     -211.171    -825.983     413.078
  H     -214.325    -820.363     413.487
  H     -214.543    -823.685     411.476
  H     -216.303    -821.839     413.217
  H     -218.031    -822.019     411.571
  H     -216.267    -821.955     409.348
  H     -215.776    -819.517     410.034
  H     -209.505    -823.234     416.229
  H     -210.472    -821.753     416.213
  H     -217.497    -819.960     409.798
  P     -218.472    -823.767     409.546
  C     -216.905    -824.571     407.645
  O     -218.067    -824.832     408.416
  O     -218.313    -822.347     408.815
  O     -219.850    -823.933     410.117
  H     -219.183    -821.907     408.750
  H     -216.762    -825.361     406.937
  H     -216.054    -824.512     408.291
  H     -217.023    -823.643     407.125

 6  7  8  9  10  11  12  13  14  15  25  28  32  33  34  35 0
 6-311+G(2d,p)
 ****
 36  39  40 0
 6-311+G(2d,p)
 ****
 1  2  3  4  5  16  17  18  19  20  21  22  23  24 0
 3-21G
 ****
 26  27  29  30  31  37  38  41  42  43  44  45  46  47 0
 3-21G
 ****
 48 0
 3-21G
 ****


