%nproc=1
%NoSave
%Mem=1900MB
#P OB98/GEN NMR

erre ene a

0 1
  C       23.740     -48.236    -436.202
  O       23.673     -48.947    -434.985
  H       23.785     -47.164    -435.985
  H       22.851     -48.437    -436.804
  H       24.640     -48.520    -436.758
  P       23.598     -50.545    -435.078
  C       21.980     -52.285    -434.023
  O       22.148     -50.957    -434.516
  C       20.502     -52.560    -433.738
  O       20.065     -51.720    -432.633
  C       19.575     -52.279    -434.932
  O       18.539     -53.273    -434.956
  C       18.960     -50.935    -434.577
  O       17.717     -50.723    -435.239
  C       18.855     -51.063    -433.060
  N       15.536     -47.404    -432.083
  C       15.370     -48.617    -432.716
  N       14.131     -48.902    -433.174
  N       16.336     -49.477    -432.902
  C       17.519     -49.075    -432.374
  C       17.814     -47.895    -431.732
  C       16.739     -46.943    -431.554
  O       16.834     -45.843    -431.016
  N       19.144     -47.851    -431.376
  C       19.645     -49.000    -431.804
  N       18.696     -49.771    -432.412
  O       24.591     -51.039    -433.922
  O       23.945     -51.131    -436.410
  H       17.265     -49.970    -434.798
  H       24.996     -51.898    -434.156
  H       14.760     -46.773    -431.973
  H       20.678     -49.307    -431.698
  H       18.004     -51.681    -432.749
  H       19.647     -50.125    -434.855
  H       13.331     -48.302    -433.040
  H       20.091     -52.263    -435.892
  H       13.979     -49.794    -433.635
  H       20.404     -53.599    -433.399
  H       22.558     -52.392    -433.099
  H       22.356     -52.995    -434.768
  P       18.173     -53.926    -436.371
  C       16.103     -54.092    -437.929
  O       16.630     -53.612    -436.699
  O       18.177     -55.504    -436.054
  O       19.140     -53.602    -437.460
  H       18.951     -55.921    -436.455
  H       15.074     -53.810    -438.010
  H       16.184     -55.158    -437.960
  H       16.654     -53.668    -438.743

 6  7  8  9  10  11  12  13  14  15  26  29  33  34 0
 6-311+G(2d,p)
 ****
 36  38  39  40  41 0
 6-311+G(2d,p)
 ****
 1  2  3  4  5  16  17  18  19  20  21  22  23  24  25 0
 3-21G
 ****
 27  28  30  31  32  35  37  42  43  44  45  46  47 0
 3-21G
 ****
 48  49 0
 3-21G
 ****


