%nproc=1
%NoSave
%Mem=1900MB
#P OB98/GEN NMR

erre ene a

0 1
  C      230.817     832.647     369.779
  O      231.625     831.772     370.562
  P      232.249     832.138     371.989
  C      231.281     832.428     374.404
  O      231.120     831.916     373.098
  C      230.133     832.052     375.361
  O      228.881     832.640     374.878
  C      229.918     830.534     375.369
  O      230.706     829.710     376.214
  C      228.417     830.366     375.579
  O      228.065     830.185     376.944
  C      227.825     831.668     375.049
  N      223.344     830.740     372.752
  C      223.655     830.746     374.092
  N      222.638     830.433     374.952
  N      224.826     831.035     374.574
  C      225.762     831.252     373.607
  C      225.585     831.252     372.243
  C      224.265     830.979     371.746
  O      223.930     830.965     370.545
  N      226.766     831.494     371.595
  C      227.662     831.617     372.544
  N      227.098     831.487     373.798
  O      232.998     833.429     372.044
  O      233.304     830.952     372.260
  H      228.516     829.392     377.274
  H      234.036     831.339     372.777
  H      222.396     830.531     372.440
  H      228.717     831.822     372.404
  H      227.131     832.104     375.771
  H      228.055     829.461     375.058
  H      221.749     830.077     374.643
  H      230.113     830.173     374.354
  H      222.928     830.225     375.902
  H      230.294     832.462     376.356
  H      231.361     833.512     374.330
  H      232.221     832.062     374.835
  P      232.157     829.114     375.850
  C      234.508     830.002     375.373
  O      233.203     830.315     375.831
  O      232.041     828.709     374.305
  O      232.566     827.916     376.672
  H      232.751     828.105     374.049
  H      235.197     830.809     375.717
  H      234.519     829.939     374.291
  H      234.858     829.044     375.804
  H      230.533     832.155     368.872
  H      231.372     833.532     369.546
  H      229.939     832.912     370.331

 3  4  5  6  7  8  9  10  11  12  23  26  30  31 0
 6-311+G(2d,p)
 ****
 33  35  36  37  38 0
 6-311+G(2d,p)
 ****
 1  2  13  14  15  16  17  18  19  20  21  22  24  25 0
 3-21G
 ****
 27  28  29  32  34  39  40  41  42  43  44  45  46  47  48  49 0
 3-21G
 ****


