%nproc=1
%NoSave
%Mem=1900MB
#P OB98/GEN NMR

erre ene a

0 1
  C     -473.231     394.216    -506.179
  O     -474.129     394.381    -507.260
  H     -472.741     393.239    -506.236
  H     -472.469     394.997    -506.237
  H     -473.765     394.308    -505.234
  P     -475.264     393.258    -507.419
  C     -476.844     394.377    -505.691
  O     -476.067     393.232    -506.028
  C     -478.325     394.015    -505.643
  O     -478.573     393.112    -504.531
  C     -479.261     395.192    -505.408
  O     -479.486     395.938    -506.597
  C     -480.527     394.469    -504.948
  O     -481.231     393.962    -506.098
  C     -479.956     393.295    -504.132
  N     -482.495     392.364    -499.758
  C     -482.726     391.986    -501.030
  N     -482.022     392.273    -502.148
  C     -480.954     393.031    -501.844
  C     -480.590     393.495    -500.588
  C     -481.408     393.138    -499.516
  N     -481.171     393.536    -498.212
  N     -479.424     394.235    -500.664
  C     -479.092     394.226    -501.940
  N     -479.991     393.519    -502.698
  O     -474.442     391.884    -507.388
  O     -476.110     393.364    -508.641
  H     -481.838     393.272    -505.774
  H     -474.870     391.247    -507.992
  H     -483.600     391.355    -501.181
  H     -478.218     394.714    -502.356
  H     -480.486     392.362    -504.346
  H     -481.208     395.107    -504.396
  H     -478.901     395.836    -504.589
  H     -478.582     393.490    -506.569
  H     -476.694     395.154    -506.451
  H     -481.678     393.094    -497.471
  H     -480.352     394.119    -498.039
  H     -476.514     394.753    -504.719
  P     -479.953     397.468    -506.443
  C     -477.638     398.286    -507.317
  O     -478.592     398.311    -506.261
  O     -480.601     397.501    -504.973
  O     -480.892     397.959    -507.475
  H     -481.244     398.230    -504.915
  H     -476.795     398.888    -507.050
  H     -478.084     398.672    -508.210
  H     -477.318     397.279    -507.485

 6  7  8  9  10  11  12  13  14  15  25  28  32  33  34  35 0
 6-311+G(2d,p)
 ****
 36  39  40 0
 6-311+G(2d,p)
 ****
 1  2  3  4  5  16  17  18  19  20  21  22  23  24 0
 3-21G
 ****
 26  27  29  30  31  37  38  41  42  43  44  45  46  47  48 0
 3-21G
 ****


