%nproc=1
%NoSave
%Mem=1900MB
#P OB98/GEN NMR

erre ene a

0 1
  C      537.752     430.430    -217.940
  O      537.401     431.107    -216.730
  P      535.982     430.791    -216.052
  C      536.898     429.579    -213.966
  O      536.195     430.713    -214.463
  C      537.306     429.796    -212.504
  O      538.472     430.628    -212.393
  C      536.230     430.471    -211.671
  O      535.174     429.564    -211.369
  C      537.038     430.944    -210.465
  O      537.217     429.878    -209.525
  C      538.398     431.310    -211.123
  N      538.602     432.741    -211.260
  C      539.878     433.147    -211.645
  O      540.783     432.329    -211.789
  N      540.120     434.498    -211.819
  C      539.160     435.351    -211.614
  N      539.460     436.666    -211.804
  C      537.794     434.959    -211.210
  C      537.592     433.650    -211.035
  O      535.215     429.650    -216.639
  O      535.189     432.179    -216.222
  H      537.785     430.238    -208.819
  H      534.237     431.987    -216.303
  H      537.038     435.703    -211.062
  H      536.622     433.281    -210.741
  H      539.224     430.909    -210.515
  H      536.554     431.768    -209.946
  H      535.840     431.337    -212.218
  H      537.547     428.805    -212.075
  H      540.400     436.907    -212.075
  H      537.780     429.395    -214.579
  H      538.762     437.406    -211.725
  H      536.246     428.692    -214.067
  P      533.823     430.186    -210.764
  C      532.081     429.634    -212.606
  O      532.606     429.320    -211.329
  O      533.678     431.581    -211.556
  O      533.845     430.405    -209.290
  H      533.272     432.246    -210.976
  H      531.497     428.778    -212.959
  H      532.891     429.808    -213.331
  H      531.434     430.509    -212.547
  H      538.722     430.750    -218.259
  H      537.033     430.659    -218.698
  H      537.764     429.374    -217.767

 3  4  5  6  7  8  9  10  11  12  13  23  27  28  29  30  32 0
 6-311+G(2d,p)
 ****
 34  35 0
 6-311+G(2d,p)
 ****
 1  2  14  15  16  17  18  19  20  21  22  24  25  26 0
 3-21G
 ****
 31  33  36  37  38  39  40  41  42  43  44  45  46 0
 3-21G
 ****


