%nproc=1
%NoSave
%Mem=1900MB
#P OB98/GEN NMR

erre ene a

0 1
  C       58.378     495.624     258.735
  O       58.996     494.561     257.993
  P       59.942     494.994     256.773
  C       61.678     493.075     257.042
  O       60.683     493.679     256.223
  C       61.945     491.646     256.577
  O       60.798     490.787     256.787
  C       62.251     491.541     255.083
  O       63.572     491.991     254.803
  C       62.023     490.051     254.851
  O       63.164     489.292     255.286
  C       60.825     489.761     255.766
  N       56.927     486.809     254.248
  C       58.057     486.533     254.939
  N       59.051     487.374     255.299
  C       58.780     488.627     254.891
  C       57.669     489.063     254.184
  C       56.710     488.085     253.859
  N       55.560     488.371     253.141
  N       57.749     490.421     253.942
  C       58.901     490.794     254.474
  N       59.553     489.745     255.066
  O       61.117     495.821     257.486
  O       59.246     495.814     255.734
  H       62.988     488.350     255.071
  H       61.026     496.769     257.286
  H       58.182     485.493     255.230
  H       59.295     491.801     254.452
  H       60.924     488.799     256.278
  H       61.850     489.805     253.796
  H       61.525     492.129     254.507
  H       62.789     491.245     257.161
  H       61.358     493.071     258.087
  H       54.966     487.603     252.877
  H       55.438     489.303     252.774
  H       62.588     493.683     256.996
  P       63.782     492.898     253.495
  C       64.319     495.021     254.831
  O       64.833     494.016     253.982
  O       62.409     493.706     253.433
  O       64.158     492.147     252.262
  H       62.153     494.052     254.310
  H       65.140     495.697     255.116
  H       63.899     494.575     255.739
  H       63.547     495.601     254.308
  H       57.776     495.210     259.517
  H       57.762     496.205     258.080
  H       59.135     496.249     259.161

 3  4  5  6  7  8  9  10  11  12  22  25  29  30  31  32 0
 6-311+G(2d,p)
 ****
 33  36  37 0
 6-311+G(2d,p)
 ****
 1  2  13  14  15  16  17  18  19  20  21  23  24  26 0
 3-21G
 ****
 27  28  34  35  38  39  40  41  42  43  44  45  46  47  48 0
 3-21G
 ****


