%nproc=1
%NoSave
%Mem=1900MB
#P OB98/GEN NMR

erre ene a

0 1
  C      -64.844     -35.002     -12.146
  O      -65.105     -36.355     -11.819
  H      -65.796     -34.495     -12.331
  H      -64.234     -34.930     -13.051
  H      -64.335     -34.504     -11.317
  P      -63.858     -37.349     -11.656
  C      -62.099     -38.258     -13.322
  O      -63.406     -37.720     -13.146
  C      -62.011     -38.996     -14.654
  O      -63.003     -40.041     -14.712
  C      -62.280     -38.101     -15.855
  O      -61.163     -37.281     -16.133
  C      -62.614     -39.134     -16.913
  O      -61.427     -39.728     -17.455
  C      -63.422     -40.166     -16.091
  N      -64.864     -39.985     -16.220
  C      -65.627     -41.156     -16.282
  O      -65.083     -42.258     -16.223
  N      -66.987     -41.042     -16.432
  C      -67.537     -39.871     -16.496
  N      -68.889     -39.828     -16.645
  C      -66.771     -38.613     -16.421
  C      -65.452     -38.743     -16.288
  O      -64.050     -38.532     -10.756
  O      -62.679     -36.392     -11.147
  H      -60.991     -40.182     -16.707
  H      -62.673     -36.348     -10.172
  H      -67.273     -37.658     -16.473
  H      -64.814     -37.867     -16.223
  H      -63.174     -41.188     -16.405
  H      -63.172     -38.696     -17.738
  H      -63.174     -37.493     -15.680
  H      -61.022     -39.467     -14.724
  H      -69.374     -40.718     -16.704
  H      -61.920     -38.950     -12.492
  H      -69.432     -38.980     -16.619
  H      -61.345     -37.464     -13.279
  P      -61.358     -35.840     -16.809
  C      -62.496     -35.014     -18.972
  O      -61.951     -36.131     -18.273
  O      -60.161     -34.949     -16.767
  O      -62.621     -35.241     -16.025
  H      -62.378     -34.957     -15.111
  H      -62.856     -35.333     -19.928
  H      -61.737     -34.272     -19.106
  H      -63.304     -34.599     -18.406

 6  7  8  9  10  11  12  13  14  15  16  26  30  31  32  33  35 0
 6-311+G(2d,p)
 ****
 37  38 0
 6-311+G(2d,p)
 ****
 1  2  3  4  5  17  18  19  20  21  22  23  24  25 0
 3-21G
 ****
 27  28  29  34  36  39  40  41  42  43  44  45  46 0
 3-21G
 ****


