%nproc=1
%NoSave
%Mem=1900MB
#P OB98/GEN NMR

erre ene a

0 1
  C     -488.946     149.770    -270.989
  O     -489.098     148.551    -271.723
  P     -490.204     148.355    -272.868
  C     -488.568     146.963    -274.298
  O     -489.861     147.038    -273.716
  C     -487.878     145.629    -273.996
  O     -487.549     145.534    -272.594
  C     -488.724     144.393    -274.300
  O     -488.776     144.134    -275.690
  C     -487.995     143.335    -273.477
  O     -486.854     142.825    -274.184
  C     -487.559     144.133    -272.236
  N     -488.414     143.893    -271.082
  C     -488.063     142.814    -270.261
  O     -487.121     142.079    -270.568
  N     -488.820     142.565    -269.140
  C     -489.868     143.289    -268.896
  N     -490.566     143.004    -267.766
  C     -490.314     144.388    -269.776
  C     -489.548     144.629    -270.836
  O     -490.434     149.571    -273.704
  O     -491.544     147.951    -272.081
  H     -487.186     142.469    -275.028
  H     -492.315     148.282    -272.579
  H     -491.210     144.945    -269.551
  H     -489.803     145.419    -271.531
  H     -486.523     143.886    -271.965
  H     -488.634     142.480    -273.237
  H     -489.737     144.532    -273.892
  H     -486.943     145.595    -274.568
  H     -490.231     142.253    -267.178
  H     -487.956     147.782    -273.889
  H     -491.398     143.510    -267.475
  H     -488.656     147.109    -275.382
  P     -490.057     144.602    -276.534
  C     -488.448     144.843    -278.526
  O     -489.711     144.377    -278.083
  O     -490.604     145.949    -276.197
  O     -491.137     143.457    -276.248
  H     -492.032     143.852    -276.273
  H     -488.173     144.301    -279.440
  H     -487.681     144.686    -277.761
  H     -488.510     145.908    -278.754
  H     -488.149     149.664    -270.283
  H     -489.855     149.989    -270.470
  H     -488.720     150.568    -271.665

 3  4  5  6  7  8  9  10  11  12  13  23  27  28  29  30  32 0
 6-311+G(2d,p)
 ****
 34  35 0
 6-311+G(2d,p)
 ****
 1  2  14  15  16  17  18  19  20  21  22  24  25  26 0
 3-21G
 ****
 31  33  36  37  38  39  40  41  42  43  44  45  46 0
 3-21G
 ****


