%nproc=1
%NoSave
%Mem=1900MB
#P OB98/GEN NMR

erre ene a

0 1
  C       53.970    -768.547    -216.549
  O       54.547    -769.420    -215.596
  H       53.679    -767.622    -216.046
  H       53.074    -769.002    -216.986
  H       54.693    -768.307    -217.336
  P       55.051    -770.860    -216.083
  C       52.787    -772.047    -215.659
  O       53.721    -771.586    -216.623
  C       52.050    -773.281    -216.189
  O       51.222    -772.950    -217.327
  C       52.948    -774.409    -216.680
  O       53.582    -775.124    -215.636
  C       51.924    -775.250    -217.428
  O       51.125    -775.983    -216.483
  C       51.109    -774.152    -218.136
  N       51.567    -773.893    -219.506
  C       51.366    -774.917    -220.435
  O       50.833    -775.981    -220.103
  N       51.803    -774.732    -221.733
  C       52.409    -773.633    -222.049
  N       52.829    -773.506    -223.346
  C       52.664    -772.535    -221.095
  C       52.220    -772.721    -219.850
  O       55.854    -771.646    -215.092
  O       55.839    -770.573    -217.451
  H       50.595    -775.331    -215.998
  H       56.186    -771.431    -217.788
  H       53.206    -771.653    -221.407
  H       52.371    -771.967    -219.099
  H       50.040    -774.416    -218.166
  H       52.382    -775.983    -218.099
  H       53.683    -774.032    -217.403
  H       51.368    -773.625    -215.387
  H       52.646    -774.272    -223.973
  H       52.089    -771.230    -215.440
  H       53.382    -772.714    -223.665
  H       53.308    -772.328    -214.737
  P       55.199    -775.149    -215.657
  C       55.141    -777.611    -216.542
  O       55.621    -776.281    -216.715
  O       55.565    -775.787    -214.227
  O       55.859    -773.818    -215.881
  H       55.799    -775.083    -213.593
  H       55.516    -778.231    -217.330
  H       54.071    -777.610    -216.567
  H       55.475    -777.991    -215.599

 6  7  8  9  10  11  12  13  14  15  16  26  30  31  32  33  35 0
 6-311+G(2d,p)
 ****
 37  38 0
 6-311+G(2d,p)
 ****
 1  2  3  4  5  17  18  19  20  21  22  23  24  25 0
 3-21G
 ****
 27  28  29  34  36  39  40  41  42  43  44  45  46 0
 3-21G
 ****


