%nproc=1
%NoSave
%Mem=1900MB
#P OB98/GEN NMR

erre ene a

0 1
  C      272.981     128.458    -191.224
  O      273.944     128.227    -190.200
  P      274.930     126.972    -190.344
  C      273.220     125.218    -189.345
  O      274.084     125.620    -190.383
  C      272.793     123.759    -189.574
  O      273.953     122.923    -189.760
  C      272.001     123.173    -188.410
  O      270.617     123.454    -188.511
  C      272.328     121.697    -188.519
  O      271.558     121.089    -189.571
  C      273.827     121.749    -188.909
  N      274.825     121.844    -187.822
  C      274.754     120.974    -186.736
  O      273.894     120.107    -186.602
  N      275.727     121.118    -185.784
  C      276.839     121.902    -185.880
  O      277.710     121.947    -185.021
  C      276.945     122.690    -187.112
  C      275.951     122.637    -188.002
  O      275.678     126.914    -188.935
  O      275.893     127.072    -191.486
  H      271.730     120.133    -189.540
  H      276.632     127.088    -189.049
  H      275.650     120.546    -184.957
  H      277.835     123.291    -187.252
  H      276.021     123.218    -188.918
  H      274.099     120.875    -189.510
  H      272.070     121.165    -187.606
  H      272.403     123.536    -187.460
  H      272.193     123.714    -190.491
  H      272.337     125.863    -189.302
  H      273.730     125.317    -188.381
  P      269.949     124.535    -187.538
  C      269.829     122.790    -185.662
  O      270.316     124.061    -186.049
  O      268.508     124.835    -187.784
  O      270.874     125.831    -187.726
  H      270.480     126.447    -188.385
  H      270.276     122.522    -184.700
  H      270.098     122.033    -186.403
  H      268.741     122.830    -185.548
  H      272.405     129.326    -190.982
  H      272.333     127.610    -191.302
  H      273.482     128.611    -192.157

 3  4  5  6  7  8  9  10  11  12  13  23  28  29  30  31  32 0
 6-311+G(2d,p)
 ****
 33  34 0
 6-311+G(2d,p)
 ****
 1  2  14  15  16  17  18  19  20  21  22  24  25  26  27 0
 3-21G
 ****
 35  36  37  38  39  40  41  42  43  44  45 0
 3-21G
 ****


