%nproc=1
%NoSave
%Mem=1900MB
#P OB98/GEN NMR

erre ene a

0 1
  C      -99.648     308.912     537.870
  O      -98.270     309.270     537.862
  P      -97.055     308.245     538.007
  C      -95.736     308.653     535.781
  O      -95.804     308.821     537.197
  C      -94.345     309.048     535.206
  O      -94.199     310.480     535.255
  C      -93.233     308.452     536.054
  O      -92.821     307.111     535.849
  C      -92.087     309.476     535.975
  O      -91.158     309.161     534.923
  C      -92.825     310.781     535.659
  N      -90.084     313.895     538.646
  C      -89.645     313.035     537.654
  N      -88.312     312.972     537.458
  N      -90.469     312.306     536.931
  C      -91.762     312.413     537.296
  C      -92.309     313.201     538.276
  C      -91.418     314.055     539.034
  O      -91.754     314.829     539.949
  N      -93.674     313.038     538.368
  C      -93.937     312.115     537.460
  N      -92.824     311.707     536.776
  O      -97.402     306.796     537.797
  O      -96.614     308.419     539.560
  H      -91.662     308.929     534.134
  H      -96.297     307.535     539.855
  H      -89.419     314.453     539.184
  H      -94.938     311.724     537.246
  H      -92.354     311.307     534.791
  H      -91.533     309.506     536.904
  H      -87.648     313.418     538.068
  H      -93.578     308.473     537.100
  H      -87.982     312.181     536.870
  H      -94.286     308.773     534.128
  H      -96.514     309.284     535.354
  H      -95.975     307.625     535.501
  P      -92.262     306.097     536.975
  C      -94.213     304.457     536.684
  O      -92.801     304.618     536.641
  O      -93.098     306.496     538.288
  O      -90.768     306.192     537.238
  H      -92.658     306.130     539.098
  H      -94.441     303.385     536.734
  H      -94.667     304.857     535.772
  H      -94.635     304.960     537.578
  H     -100.246     309.792     537.756
  H      -99.887     308.436     538.798
  H      -99.846     308.239     537.062

 3  4  5  6  7  8  9  10  11  12  23  26  30  31 0
 6-311+G(2d,p)
 ****
 33  35  36  37  38 0
 6-311+G(2d,p)
 ****
 1  2  13  14  15  16  17  18  19  20  21  22  24  25 0
 3-21G
 ****
 27  28  29  32  34  39  40  41  42  43  44  45  46  47  48  49 0
 3-21G
 ****


