%nproc=1
%NoSave
%Mem=1900MB
#P OB98/GEN NMR

erre ene a

0 1
  C     1037.001    -582.247     323.486
  O     1038.228    -581.825     324.082
  P     1039.214    -580.769     323.370
  C     1038.765    -578.237     323.138
  O     1038.984    -579.318     324.039
  C     1038.849    -576.882     323.856
  O     1037.908    -576.824     324.946
  C     1040.215    -576.560     324.442
  O     1041.109    -576.126     323.426
  C     1039.855    -575.513     325.485
  O     1039.706    -574.216     324.865
  C     1038.499    -576.023     326.000
  N     1036.389    -576.907     330.581
  C     1036.034    -576.096     329.557
  N     1036.651    -575.905     328.367
  C     1037.740    -576.688     328.281
  C     1038.232    -577.564     329.232
  C     1037.519    -577.658     330.437
  N     1037.893    -578.471     331.477
  N     1039.395    -578.172     328.793
  C     1039.572    -577.690     327.569
  N     1038.609    -576.791     327.213
  O     1039.129    -580.768     321.881
  O     1040.679    -581.175     323.856
  H     1038.934    -574.252     324.273
  H     1041.337    -580.916     323.178
  H     1035.112    -575.531     329.723
  H     1040.398    -577.971     326.914
  H     1037.805    -575.191     326.184
  H     1040.612    -575.408     326.261
  H     1040.628    -577.444     324.945
  H     1038.556    -576.106     323.132
  H     1037.773    -578.358     322.700
  H     1037.349    -578.461     332.331
  H     1038.747    -579.008     331.394
  H     1039.519    -578.298     322.349
  P     1042.456    -576.939     323.135
  C     1043.072    -579.205     322.086
  O     1042.017    -578.350     322.496
  O     1043.426    -577.033     324.267
  O     1043.091    -576.176     321.874
  H     1044.068    -576.273     321.897
  H     1043.445    -578.885     321.096
  H     1042.681    -580.226     321.998
  H     1043.878    -579.200     322.806
  H     1036.513    -582.946     324.132
  H     1037.204    -582.713     322.544
  H     1036.367    -581.398     323.335

 3  4  5  6  7  8  9  10  11  12  22  25  29  30  31  32 0
 6-311+G(2d,p)
 ****
 33  36  37 0
 6-311+G(2d,p)
 ****
 1  2  13  14  15  16  17  18  19  20  21  23  24  26 0
 3-21G
 ****
 27  28  34  35  38  39  40  41  42  43  44  45  46  47  48 0
 3-21G
 ****


