%nproc=1
%NoSave
%Mem=1900MB
#P OB98/GEN NMR

erre ene a

0 1
  C     -889.690    -740.086    -893.190
  O     -889.470    -739.880    -894.580
  H     -890.710    -739.789    -892.910
  H     -889.560    -741.145    -892.950
  H     -888.960    -739.516    -892.600
  P     -889.600    -738.385    -895.110
  C     -891.580    -736.734    -895.420
  O     -891.160    -738.047    -895.130
  C     -892.980    -736.737    -896.030
  O     -893.970    -737.188    -895.050
  C     -893.470    -735.377    -896.510
  O     -892.960    -735.042    -897.790
  C     -894.980    -735.614    -896.560
  O     -895.290    -736.390    -897.750
  C     -895.180    -736.471    -895.310
  N     -899.040    -734.876    -892.330
  C     -899.020    -735.622    -893.460
  N     -897.960    -736.024    -894.190
  C     -896.820    -735.507    -893.670
  C     -896.690    -734.722    -892.500
  C     -897.880    -734.418    -891.840
  N     -897.900    -733.640    -890.710
  N     -895.360    -734.395    -892.310
  C     -894.710    -735.007    -893.290
  N     -895.540    -735.701    -894.140
  O     -889.240    -738.506    -896.660
  O     -888.750    -737.363    -894.420
  H     -894.570    -737.043    -897.840
  H     -888.980    -737.644    -897.030
  H     -900.000    -735.982    -893.800
  H     -893.630    -734.978    -893.410
  H     -895.990    -737.242    -895.450
  H     -895.550    -734.726    -896.590
  H     -893.270    -734.584    -895.750
  H     -892.990    -737.464    -896.880
  H     -890.890    -736.279    -896.150
  H     -898.820    -733.309    -890.420
  H     -897.030    -733.168    -890.410
  H     -891.580    -736.122    -894.500
  P     -892.750    -733.475    -898.100
  C     -894.310    -731.358    -898.040
  O     -894.180    -732.783    -897.810
  O     -892.620    -733.421    -899.690
  O     -891.570    -732.841    -897.410
  H     -892.100    -732.659    -900.000
  H     -895.307    -731.048    -897.805
  H     -894.102    -731.142    -899.067
  H     -893.617    -730.832    -897.417

 6  7  8  9  10  11  12  13  14  15  25  28  32  33  34  35 0
 6-311+G(2d,p)
 ****
 36  39  40 0
 6-311+G(2d,p)
 ****
 1  2  3  4  5  16  17  18  19  20  21  22  23  24 0
 3-21G
 ****
 26  27  29  30  31  37  38  41  42  43  44  45  46  47 0
 3-21G
 ****
 48 0
 3-21G
 ****


