%nproc=1
%NoSave
%Mem=1900MB
#P OB98/GEN NMR

erre ene a

0 1
  C      -37.085      25.480     144.810
  O      -38.501      25.299     144.870
  P      -39.086      23.844     145.201
  C      -40.784      24.609     146.983
  O      -40.602      24.002     145.711
  C      -42.230      24.432     147.467
  O      -43.105      25.412     146.837
  C      -42.796      23.044     147.135
  O      -43.716      22.619     148.153
  C      -43.592      23.299     145.869
  O      -44.570      22.286     145.649
  C      -44.155      24.688     146.163
  N      -46.660      24.330     141.710
  C      -46.498      23.450     142.724
  N      -45.839      23.623     143.888
  C      -45.322      24.861     143.962
  C      -45.413      25.867     143.013
  C      -46.114      25.562     141.835
  N      -46.254      26.448     140.790
  N      -44.752      27.004     143.437
  C      -44.232      26.670     144.600
  N      -44.574      25.400     144.975
  O      -38.222      22.978     146.055
  O      -39.281      23.202     143.745
  H      -45.041      22.507     144.824
  H      -38.991      22.268     143.767
  H      -46.957      22.476     142.576
  H      -43.591      27.301     145.200
  H      -45.014      24.642     146.843
  H      -42.918      23.319     145.005
  H      -42.040      22.266     146.997
  H      -42.269      24.615     148.546
  H      -40.539      25.670     146.922
  H      -46.671      26.102     139.940
  H      -45.728      27.311     140.809
  H      -40.071      24.175     147.692
  P      -43.104      21.677     149.308
  C      -44.893      22.580     150.987
  O      -44.284      21.469     150.370
  O      -41.805      22.172     149.853
  O      -42.991      20.267     148.559
  H      -43.799      19.983     148.101
  H      -45.749      22.234     151.571
  H      -45.248      23.295     150.239
  H      -44.184      23.071     151.660
  H      -36.865      26.502     144.580
  H      -36.677      24.848     144.050
  H      -36.653      25.226     145.755

 3  4  5  6  7  8  9  10  11  12  22  25  29  30  31  32 0
 6-311+G(2d,p)
 ****
 33  36  37 0
 6-311+G(2d,p)
 ****
 1  2  13  14  15  16  17  18  19  20  21  23  24  26 0
 3-21G
 ****
 27  28  34  35  38  39  40  41  42  43  44  45  46  47  48 0
 3-21G
 ****


