%nproc=1
%NoSave
%Mem=1900MB
#P OB98/GEN NMR

erre ene a

0 1
  C     1152.056    -406.167    -168.697
  O     1151.179    -405.193    -169.236
  H     1153.084    -405.901    -168.973
  H     1151.824    -407.151    -169.122
  H     1151.974    -406.203    -167.609
  P     1149.643    -405.257    -168.774
  C     1149.443    -402.778    -168.002
  O     1149.057    -403.764    -168.951
  C     1149.807    -401.479    -168.726
  O     1151.143    -401.636    -169.327
  C     1148.837    -401.097    -169.846
  O     1148.711    -399.675    -169.887
  C     1149.572    -401.562    -171.103
  O     1149.158    -400.894    -172.294
  C     1151.030    -401.276    -170.717
  N     1151.981    -402.019    -171.535
  C     1152.982    -401.296    -172.172
  O     1153.178    -400.087    -172.033
  N     1153.800    -402.023    -173.001
  C     1153.701    -403.360    -173.262
  O     1154.456    -403.946    -174.035
  C     1152.616    -404.065    -172.563
  C     1151.817    -403.379    -171.742
  O     1149.751    -405.426    -167.187
  O     1148.821    -406.326    -169.410
  H     1149.784    -406.377    -166.938
  H     1149.168    -399.929    -172.105
  H     1154.530    -401.511    -173.480
  H     1152.494    -405.126    -172.761
  H     1151.000    -403.866    -171.224
  H     1151.233    -400.197    -170.788
  H     1149.424    -402.639    -171.250
  H     1147.849    -401.560    -169.762
  H     1149.878    -400.670    -167.986
  H     1150.323    -403.134    -167.452
  H     1148.622    -402.606    -167.308
  P     1147.479    -399.061    -170.723
  C     1146.568    -397.704    -168.683
  O     1147.120    -397.686    -169.997
  O     1146.299    -400.061    -170.306
  O     1147.757    -398.981    -172.187
  H     1146.375    -400.369    -169.392
  H     1146.392    -396.700    -168.357
  H     1147.254    -398.181    -168.015
  H     1145.644    -398.244    -168.692

 6  7  8  9  10  11  12  13  14  15  16  27  31  32  33  34  35 0
 6-311+G(2d,p)
 ****
 36  37 0
 6-311+G(2d,p)
 ****
 1  2  3  4  5  17  18  19  20  21  22  23  24  25 0
 3-21G
 ****
 26  28  29  30  38  39  40  41  42  43  44  45 0
 3-21G
 ****


