%nproc=1
%NoSave
%Mem=1900MB
#P OB98/GEN NMR

erre ene a

0 1
  C      259.732     722.251      -9.980
  O      258.371     722.415      -9.627
  H      259.916     722.686     -10.968
  H      260.353     722.774      -9.249
  H      259.995     721.190      -9.986
  P      257.285     721.757     -10.602
  C      255.587     721.621      -8.646
  O      255.835     722.070      -9.974
  C      254.643     722.586      -7.943
  O      255.391     723.769      -7.562
  C      253.431     723.037      -8.789
  O      252.210     722.707      -8.118
  C      253.555     724.550      -8.845
  O      252.303     725.219      -8.722
  C      254.491     724.880      -7.683
  N      254.190     729.959      -7.408
  C      253.499     728.986      -6.772
  N      253.704     727.655      -6.809
  C      254.762     727.346      -7.585
  C      255.567     728.233      -8.278
  C      255.236     729.594      -8.189
  N      255.905     730.580      -8.885
  N      256.544     727.549      -8.979
  C      256.301     726.276      -8.744
  N      255.216     726.105      -7.920
  O      257.473     720.184     -10.359
  O      257.431     722.106     -12.045
  H      252.495     726.127      -8.421
  H      257.526     719.720     -11.210
  H      252.669     729.323      -6.155
  H      256.836     725.435      -9.181
  H      253.943     724.980      -6.733
  H      254.008     724.830      -9.806
  H      253.437     722.605      -9.793
  H      254.297     722.115      -7.007
  H      256.531     721.572      -8.097
  H      255.529     731.511      -8.843
  H      256.619     730.302      -9.545
  H      255.161     720.608      -8.685
  P      251.569     721.266      -8.452
  C      251.460     720.515      -5.957
  O      250.747     720.794      -7.160
  O      252.847     720.295      -8.443
  O      250.832     721.216      -9.758
  H      252.695     719.524      -9.023
  H      250.771     720.215      -5.196
  H      251.982     721.394      -5.640
  H      252.162     719.727      -6.133

 6  7  8  9  10  11  12  13  14  15  25  28  32  33  34  35 0
 6-311+G(2d,p)
 ****
 36  39  40 0
 6-311+G(2d,p)
 ****
 1  2  3  4  5  16  17  18  19  20  21  22  23  24 0
 3-21G
 ****
 26  27  29  30  31  37  38  41  42  43  44  45  46  47  48 0
 3-21G
 ****


