%nproc=1
%NoSave
%Mem=1900MB
#P OB98/GEN NMR

erre ene a

0 1
  C     -131.186    -763.575    -313.965
  O     -132.441    -764.065    -314.391
  H     -130.414    -763.944    -314.647
  H     -130.964    -763.938    -312.956
  H     -131.179    -762.482    -313.977
  P     -133.734    -763.507    -313.629
  C     -135.426    -764.097    -315.551
  O     -135.007    -764.298    -314.207
  C     -136.338    -765.239    -315.993
  O     -135.612    -766.486    -316.084
  C     -137.459    -765.551    -315.012
  O     -138.456    -764.553    -314.996
  C     -137.935    -766.894    -315.551
  O     -138.772    -766.725    -316.698
  C     -136.587    -767.553    -315.947
  N     -136.156    -768.557    -314.983
  C     -136.006    -769.859    -315.482
  O     -136.226    -770.095    -316.665
  N     -135.641    -770.855    -314.614
  C     -135.413    -770.582    -313.370
  N     -135.064    -771.616    -312.557
  C     -135.533    -769.218    -312.807
  C     -135.908    -768.268    -313.658
  O     -133.911    -762.046    -314.262
  O     -133.654    -763.530    -312.136
  H     -139.631    -766.390    -316.366
  H     -133.947    -762.047    -315.233
  H     -135.330    -769.036    -311.760
  H     -136.022    -767.243    -313.327
  H     -136.671    -768.037    -316.926
  H     -138.514    -767.452    -314.809
  H     -137.049    -765.712    -314.008
  H     -136.732    -764.997    -316.989
  H     -135.008    -772.542    -312.974
  H     -134.564    -764.012    -316.220
  H     -134.900    -771.526    -311.565
  H     -135.970    -763.144    -315.587
  P     -139.035    -764.000    -313.603
  C     -138.704    -761.459    -313.872
  O     -139.627    -762.537    -313.913
  O     -138.080    -764.049    -312.461
  O     -140.363    -764.871    -313.387
  H     -141.028    -764.775    -314.090
  H     -139.214    -760.545    -314.093
  H     -137.933    -761.622    -314.596
  H     -138.270    -761.398    -312.896

 6  7  8  9  10  11  12  13  14  15  16  26  30  31  32  33  35 0
 6-311+G(2d,p)
 ****
 37  38 0
 6-311+G(2d,p)
 ****
 1  2  3  4  5  17  18  19  20  21  22  23  24  25 0
 3-21G
 ****
 27  28  29  34  36  39  40  41  42  43  44  45  46 0
 3-21G
 ****


