%nproc=1
%NoSave
%Mem=1900MB
#P OB98/GEN NMR

erre ene a

0 1
  C     -108.561     167.107      64.152
  O     -109.386     168.237      64.324
  H     -107.521     167.437      64.074
  H     -108.828     166.587      63.229
  H     -108.646     166.423      65.002
  P     -110.918     168.027      64.745
  C     -113.136     167.673      63.473
  O     -111.751     167.975      63.374
  C     -113.914     168.409      62.381
  O     -113.865     169.840      62.672
  C     -113.334     168.201      60.965
  O     -114.415     168.202      60.025
  C     -112.498     169.455      60.796
  O     -112.222     169.723      59.444
  C     -113.377     170.492      61.486
  N     -112.633     171.712      61.785
  C     -112.821     172.788      60.926
  O     -113.559     172.756      59.942
  N     -112.066     173.902      61.186
  C     -111.089     173.998      62.131
  O     -110.390     174.993      62.270
  C     -110.897     172.809      62.978
  C     -111.671     171.739      62.774
  O     -111.454     168.977      65.763
  O     -110.987     166.505      65.237
  H     -113.056     169.804      58.944
  H     -111.764     166.368      65.811
  H     -112.198     174.695      60.580
  H     -110.118     172.847      63.728
  H     -111.545     170.839      63.365
  H     -114.247     170.743      60.864
  H     -111.539     169.340      61.317
  H     -112.756     167.280      60.870
  H     -114.967     168.110      62.424
  H     -113.487     167.991      64.460
  H     -113.281     166.592      63.375
  P     -114.787     166.899      59.164
  C     -113.863     165.764      57.053
  O     -114.164     167.004      57.686
  O     -116.239     166.545      59.185
  O     -113.932     165.724      59.840
  H     -114.503     164.940      59.959
  H     -113.456     165.949      56.081
  H     -114.758     165.184      56.961
  H     -113.149     165.227      57.642

 6  7  8  9  10  11  12  13  14  15  16  26  31  32  33  34  35 0
 6-311+G(2d,p)
 ****
 36  37 0
 6-311+G(2d,p)
 ****
 1  2  3  4  5  17  18  19  20  21  22  23  24  25 0
 3-21G
 ****
 27  28  29  30  38  39  40  41  42  43  44  45 0
 3-21G
 ****


