%nproc=1
%NoSave
%Mem=1900MB
#P OB98/GEN NMR

erre ene a

0 1
  C     -206.816      15.658     610.829
  O     -205.976      14.746     610.148
  H     -206.509      15.718     611.870
  H     -207.852      15.316     610.785
  H     -206.736      16.657     610.381
  P     -206.092      14.676     608.551
  C     -205.829      12.103     608.271
  O     -205.245      13.386     608.085
  C     -204.865      11.196     609.029
  O     -203.711      10.937     608.173
  C     -204.326      11.800     610.343
  O     -204.180      10.727     611.299
  C     -202.954      12.318     609.959
  O     -202.062      12.442     611.042
  C     -202.524      11.249     608.934
  N     -201.442      11.711     608.074
  C     -200.145      11.293     608.392
  O     -199.860      10.508     609.279
  N     -199.150      11.827     607.609
  C     -199.314      12.742     606.600
  O     -198.378      13.198     605.943
  C     -200.702      13.143     606.323
  C     -201.687      12.632     607.059
  O     -205.178      15.903     608.072
  O     -207.477      14.743     608.001
  H     -205.714      16.719     608.000
  H     -202.396      13.155     611.633
  H     -198.206      11.550     607.828
  H     -200.878      13.871     605.528
  H     -202.717      12.911     606.884
  H     -202.215      10.336     609.462
  H     -203.055      13.298     609.473
  H     -204.967      12.583     610.764
  H     -205.349      10.224     609.211
  H     -206.058      11.655     607.294
  H     -206.773      12.209     608.836
  P     -205.486      10.334     612.152
  C     -204.646       9.439     614.472
  O     -205.005       9.155     613.130
  O     -206.368       9.612     611.033
  O     -206.133      11.502     612.807
  H     -205.840       9.097     610.397
  H     -204.355       8.534     614.963
  H     -205.483       9.868     614.982
  H     -203.829      10.130     614.484

 6  7  8  9  10  11  12  13  14  15  16  27  31  32  33  34  35 0
 6-311+G(2d,p)
 ****
 36  37 0
 6-311+G(2d,p)
 ****
 1  2  3  4  5  17  18  19  20  21  22  23  24  25 0
 3-21G
 ****
 26  28  29  30  38  39  40  41  42  43  44  45 0
 3-21G
 ****


