%nproc=1
%NoSave
%Mem=1900MB
#P OB98/GEN NMR

erre ene a

0 1
  C      264.337     376.539     555.345
  O      264.038     375.428     556.203
  P      264.083     375.518     557.810
  C      266.126     374.065     558.447
  O      264.714     374.141     558.365
  C      266.594     372.606     558.393
  O      266.657     372.151     557.025
  C      267.990     372.346     558.946
  O      268.038     372.408     560.355
  C      268.282     370.958     558.372
  O      267.729     369.920     559.186
  C      267.546     371.001     557.009
  N      268.444     371.053     555.861
  C      268.533     369.883     555.092
  O      267.927     368.863     555.425
  N      269.315     369.906     553.970
  C      270.033     370.960     553.703
  N      270.774     370.921     552.554
  C      270.079     372.148     554.557
  C      269.261     372.126     555.617
  O      262.771     375.870     558.435
  O      265.200     376.620     558.149
  H      265.002     377.023     559.012
  H      268.287     369.872     559.991
  H      270.723     372.984     554.328
  H      269.225     372.974     556.307
  H      266.880     370.130     556.911
  H      269.355     370.766     558.276
  H      268.691     373.074     558.511
  H      265.857     371.991     558.927
  H      270.714     370.093     551.980
  H      266.448     374.503     559.400
  H      271.350     371.692     552.242
  H      266.567     374.649     557.639
  P      269.355     373.049     561.010
  C      269.857     371.036     562.580
  O      269.541     372.415     562.459
  O      268.938     374.574     561.298
  O      270.576     372.976     560.142
  H      269.693     375.162     561.103
  H      270.417     370.873     563.508
  H      270.473     370.697     561.732
  H      268.939     370.458     562.611
  H      264.240     376.237     554.323
  H      265.338     376.870     555.526
  H      263.655     377.339     555.547

 3  4  5  6  7  8  9  10  11  12  13  24  27  28  29  30  32 0
 6-311+G(2d,p)
 ****
 34  35 0
 6-311+G(2d,p)
 ****
 1  2  14  15  16  17  18  19  20  21  22  23  25  26 0
 3-21G
 ****
 31  33  36  37  38  39  40  41  42  43  44  45  46 0
 3-21G
 ****


