%nproc=1
%NoSave
%Mem=1900MB
#P OB98/GEN NMR

erre ene a

0 1
  C      239.546    -230.211     -10.899
  O      239.835    -230.992      -9.758
  H      238.513    -230.401     -11.205
  H      240.211    -230.482     -11.726
  H      239.658    -229.148     -10.669
  P      241.347    -230.929      -9.217
  C      241.902    -232.969     -10.749
  O      242.193    -231.624     -10.395
  C      243.201    -233.718     -11.034
  O      243.824    -233.220     -12.239
  C      244.255    -233.572      -9.940
  O      244.009    -234.407      -8.820
  C      245.498    -233.999     -10.702
  O      245.510    -235.429     -10.845
  C      245.265    -233.307     -12.065
  N      245.872    -231.977     -12.147
  C      247.256    -231.931     -12.344
  O      247.913    -232.969     -12.431
  N      247.876    -230.704     -12.408
  C      247.177    -229.618     -12.292
  N      247.843    -228.434     -12.344
  C      245.715    -229.621     -12.099
  C      245.135    -230.818     -12.035
  O      241.381    -232.038      -8.063
  O      241.840    -229.585      -8.796
  H      246.301    -235.656     -11.366
  H      242.309    -232.166      -7.749
  H      245.174    -228.690     -11.997
  H      244.064    -230.899     -11.893
  H      245.654    -233.920     -12.887
  H      246.425    -233.716     -10.201
  H      244.375    -232.527      -9.631
  H      242.952    -234.773     -11.207
  H      248.852    -228.464     -12.415
  H      241.268    -232.960     -11.642
  H      247.412    -227.552     -12.087
  H      241.368    -233.468      -9.934
  P      244.473    -233.874      -7.377
  C      246.811    -235.000      -7.533
  O      246.076    -233.790      -7.402
  O      244.188    -235.124      -6.421
  O      243.776    -232.632      -6.907
  H      243.845    -234.834      -5.556
  H      247.859    -234.783      -7.534
  H      246.546    -235.481      -8.451
  H      246.582    -235.647      -6.712

 6  7  8  9  10  11  12  13  14  15  16  26  30  31  32  33  35 0
 6-311+G(2d,p)
 ****
 37  38 0
 6-311+G(2d,p)
 ****
 1  2  3  4  5  17  18  19  20  21  22  23  24  25 0
 3-21G
 ****
 27  28  29  34  36  39  40  41  42  43  44  45  46 0
 3-21G
 ****


