%nproc=1
%NoSave
%Mem=1900MB
#P OB98/GEN NMR

erre ene a

0 1
  C      -49.764      16.446     -65.069
  O      -50.892      15.749     -65.563
  H      -49.103      15.733     -64.571
  H      -50.074      17.206     -64.346
  H      -49.221      16.913     -65.896
  P      -52.012      16.628     -66.303
  C      -54.115      17.313     -64.956
  O      -52.711      17.461     -65.123
  C      -54.427      16.065     -64.135
  O      -53.817      16.157     -62.835
  C      -55.913      15.827     -63.891
  O      -56.499      15.170     -65.004
  C      -55.866      14.919     -62.671
  O      -55.595      13.565     -63.086
  C      -54.668      15.474     -61.880
  N      -55.413      15.998     -56.826
  C      -55.262      14.902     -57.601
  N      -55.124      14.833     -58.943
  C      -55.140      16.063     -59.487
  C      -55.289      17.270     -58.823
  C      -55.426      17.210     -57.426
  N      -55.581      18.331     -56.639
  N      -55.264      18.326     -59.711
  C      -55.043      17.766     -60.883
  N      -54.996      16.396     -60.807
  O      -52.927      15.878     -67.212
  O      -51.105      17.739     -67.018
  H      -56.371      13.266     -63.596
  H      -50.388      18.027     -66.425
  H      -55.255      13.953     -57.073
  H      -54.888      18.306     -61.812
  H      -54.075      14.671     -61.427
  H      -56.810      14.901     -62.124
  H      -56.436      16.754     -63.630
  H      -53.974      15.203     -64.646
  H      -54.607      17.244     -65.934
  H      -55.863      18.188     -55.681
  H      -55.720      19.219     -57.101
  H      -54.485      18.208     -64.445
  P      -58.028      15.437     -65.413
  C      -59.317      13.252     -64.992
  O      -58.887      14.492     -64.443
  O      -58.309      15.303     -66.868
  O      -58.335      16.902     -64.852
  H      -59.141      17.259     -65.275
  H      -59.877      12.712     -64.257
  H      -58.464      12.676     -65.284
  H      -59.934      13.435     -65.847

 6  7  8  9  10  11  12  13  14  15  25  28  32  33  34  35 0
 6-311+G(2d,p)
 ****
 36  39  40 0
 6-311+G(2d,p)
 ****
 1  2  3  4  5  16  17  18  19  20  21  22  23  24 0
 3-21G
 ****
 26  27  29  30  31  37  38  41  42  43  44  45  46  47 0
 3-21G
 ****
 48 0
 3-21G
 ****


