%nproc=1
%NoSave
%Mem=1900MB
#P OB98/GEN NMR

erre ene a

0 1
  C      314.423      52.335      52.357
  O      313.681      51.606      53.315
  H      315.179      52.930      52.876
  H      313.760      53.008      51.805
  H      314.920      51.652      51.663
  P      312.626      50.536      52.760
  C      310.743      50.636      50.927
  O      311.561      51.336      51.858
  C      309.308      51.149      51.008
  O      308.794      51.052      52.351
  C      309.159      52.621      50.667
  O      309.338      52.885      49.290
  C      307.745      52.879      51.165
  O      306.770      52.401      50.227
  C      307.720      52.029      52.461
  N      307.848      52.840      53.665
  C      307.039      53.981      53.719
  O      306.267      54.241      52.792
  N      307.141      54.810      54.809
  C      307.962      54.517      55.771
  N      308.024      55.384      56.815
  C      308.815      53.311      55.764
  C      308.713      52.530      54.690
  O      311.779      50.166      54.065
  O      313.224      49.358      52.056
  H      306.927      52.889      49.393
  H      311.409      50.940      54.521
  H      309.478      53.099      56.591
  H      309.302      51.627      54.604
  H      306.783      51.460      52.530
  H      307.549      53.944      51.315
  H      309.844      53.222      51.276
  H      308.685      50.518      50.356
  H      307.440      56.211      56.777
  H      310.782      49.557      51.109
  H      308.650      55.278      57.604
  H      311.153      50.816      49.928
  P      310.320      54.060      48.809
  C      310.544      56.575      49.321
  O      309.700      55.427      49.383
  O      310.613      54.078      47.343
  O      311.614      53.861      49.730
  H      311.449      53.932      50.686
  H      310.028      57.419      49.728
  H      310.803      56.773      48.302
  H      311.434      56.394      49.886

 6  7  8  9  10  11  12  13  14  15  16  26  30  31  32  33  35 0
 6-311+G(2d,p)
 ****
 37  38 0
 6-311+G(2d,p)
 ****
 1  2  3  4  5  17  18  19  20  21  22  23  24  25 0
 3-21G
 ****
 27  28  29  34  36  39  40  41  42  43  44  45  46 0
 3-21G
 ****


