%nproc=1
%NoSave
%Mem=1900MB
#P OB98/GEN NMR

erre ene a

0 1
  C      381.113     -19.270     753.791
  O      382.102     -18.721     752.909
  P      382.288     -19.248     751.398
  C      380.711     -17.708     750.051
  O      380.911     -19.010     750.607
  C      380.055     -17.771     748.677
  O      378.715     -18.323     748.772
  C      379.889     -16.420     747.985
  O      381.120     -16.009     747.408
  C      378.783     -16.719     746.984
  O      379.314     -17.371     745.823
  C      377.886     -17.680     747.781
  N      372.858     -16.799     747.471
  C      373.696     -17.539     746.703
  N      375.027     -17.719     746.846
  C      375.478     -17.060     747.935
  C      374.743     -16.279     748.813
  C      373.368     -16.154     748.545
  N      372.522     -15.393     749.320
  N      375.553     -15.745     749.794
  C      376.756     -16.226     749.520
  N      376.760     -17.025     748.418
  O      382.824     -20.639     751.295
  O      383.293     -18.193     750.728
  H      379.902     -16.738     745.373
  H      383.794     -18.634     750.011
  H      373.237     -18.046     745.865
  H      377.647     -16.021     750.104
  H      377.488     -18.482     747.145
  H      378.263     -15.814     746.643
  H      379.542     -15.668     748.708
  H      380.638     -18.454     748.047
  H      381.695     -17.217     749.968
  H      371.548     -15.326     749.046
  H      372.898     -14.867     750.095
  H      380.085     -17.129     750.746
  P      381.343     -14.475     747.005
  C      383.144     -14.121     748.803
  O      381.879     -13.711     748.312
  O      380.207     -13.818     746.302
  O      382.653     -14.516     746.075
  H      382.608     -13.790     745.430
  H      383.024     -15.039     749.388
  H      383.536     -13.337     749.450
  H      383.850     -14.295     747.989
  H      381.166     -18.775     754.738
  H      381.295     -20.316     753.925
  H      380.140     -19.129     753.368

 3  4  5  6  7  8  9  10  11  12  22  25  29  30  31  32 0
 6-311+G(2d,p)
 ****
 33  36  37 0
 6-311+G(2d,p)
 ****
 1  2  13  14  15  16  17  18  19  20  21  23  24  26 0
 3-21G
 ****
 27  28  34  35  38  39  40  41  42  43  44  45  46  47  48 0
 3-21G
 ****


