%nproc=1
%NoSave
%Mem=1900MB
#P OB98/GEN NMR

erre ene a

0 1
  C     -260.197     134.839      -9.786
  O     -259.711     134.840      -8.458
  H     -259.375     134.667     -10.488
  H     -260.927     134.031      -9.895
  H     -260.688     135.792     -10.010
  P     -258.606     135.954      -8.107
  C     -259.873     138.120      -7.465
  O     -259.262     136.922      -7.002
  C     -260.671     138.772      -6.336
  O     -261.755     137.871      -5.972
  C     -259.845     139.067      -5.072
  O     -260.043     140.422      -4.645
  C     -260.429     138.136      -4.021
  O     -260.424     138.704      -2.715
  C     -261.843     137.900      -4.537
  N     -264.337     135.778      -0.628
  C     -264.247     137.064      -1.036
  N     -263.647     137.551      -2.142
  C     -263.128     136.552      -2.881
  C     -263.165     135.196      -2.602
  C     -263.789     134.815      -1.403
  N     -263.835     133.512      -0.957
  N     -262.518     134.474      -3.594
  C     -262.064     135.385      -4.430
  N     -262.392     136.656      -4.035
  O     -258.567     136.859      -9.430
  O     -257.261     135.408      -7.775
  H     -260.794     139.603      -2.787
  H     -257.670     136.818      -9.812
  H     -264.712     137.800      -0.384
  H     -261.453     135.188      -5.307
  H     -262.526     138.714      -4.259
  H     -259.846     137.207      -4.003
  H     -258.775     138.886      -5.215
  H     -261.132     139.693      -6.717
  H     -260.551     137.890      -8.296
  H     -264.196     133.342      -0.035
  H     -263.329     132.806      -1.476
  H     -259.096     138.802      -7.825
  P     -258.769     141.402      -4.775
  C     -259.036     142.327      -7.189
  O     -259.152     142.584      -5.791
  O     -257.711     140.514      -5.585
  O     -258.219     141.842      -3.460
  H     -256.878     140.439      -5.077
  H     -259.323     143.200      -7.737
  H     -259.676     141.512      -7.456
  H     -258.022     142.076      -7.423

 6  7  8  9  10  11  12  13  14  15  25  28  32  33  34  35 0
 6-311+G(2d,p)
 ****
 36  39  40 0
 6-311+G(2d,p)
 ****
 1  2  3  4  5  16  17  18  19  20  21  22  23  24 0
 3-21G
 ****
 26  27  29  30  31  37  38  41  42  43  44  45  46  47  48 0
 3-21G
 ****


