%nproc=1
%NoSave
%Mem=1900MB
#P OB98/GEN NMR

erre ene a

0 1
  C      524.369    -580.909    1055.148
  O      524.580    -582.227    1055.669
  P      523.362    -582.882    1056.493
  C      522.571    -584.801    1054.919
  O      522.335    -583.483    1055.426
  C      521.396    -585.721    1055.200
  O      520.215    -585.278    1054.487
  C      521.599    -587.163    1054.783
  O      522.377    -587.877    1055.728
  C      520.167    -587.670    1054.764
  O      519.757    -588.049    1056.097
  C      519.387    -586.452    1054.269
  N      515.646    -587.108    1050.905
  C      515.614    -587.114    1052.293
  N      514.392    -587.301    1052.861
  N      516.662    -586.953    1053.043
  C      517.798    -586.761    1052.347
  C      517.966    -586.735    1050.982
  C      516.799    -586.937    1050.153
  O      516.771    -586.973    1048.917
  N      519.269    -586.491    1050.631
  C      519.886    -586.345    1051.786
  N      519.039    -586.512    1052.859
  O      522.585    -581.598    1057.062
  O      523.786    -583.807    1057.579
  H      518.819    -588.291    1056.041
  H      522.119    -581.836    1057.876
  H      514.804    -587.242    1050.376
  H      520.944    -586.117    1051.907
  H      518.467    -586.291    1054.840
  H      520.050    -588.573    1054.138
  H      513.518    -587.355    1052.350
  H      522.040    -587.228    1053.774
  H      514.330    -587.262    1053.868
  H      521.180    -585.648    1056.280
  H      523.470    -585.214    1055.387
  H      522.773    -584.731    1053.841
  P      523.400    -588.979    1055.172
  C      525.657    -587.737    1055.541
  O      524.661    -588.156    1054.628
  O      522.681    -589.500    1053.846
  O      523.714    -590.081    1056.135
  H      522.935    -590.434    1053.664
  H      525.887    -588.530    1056.251
  H      525.305    -586.847    1056.086
  H      526.565    -587.470    1054.994
  H      525.245    -580.588    1054.625
  H      524.168    -580.235    1055.954
  H      523.536    -580.920    1054.476

 3  4  5  6  7  8  9  10  11  12  23  26  30  31  33  0
 6-311+G(2d,p)
 ****
 35  36  37  38 0
 6-311+G(2d,p)
 ****
 1  2  13  14  15  16  17  18  19  20  21  22  24  25  27  28  29 0
 3-21G
 ****
 32  34  39  40  41  42  43  44  45  46  47  48  49 0
 3-21G
 ****


