%nproc=1
%NoSave
%Mem=1900MB
#P OB98/GEN NMR

erre ene a

0 1
  C     -329.977    -258.164    -427.144
  O     -330.446    -259.442    -426.743
  P     -331.135    -260.379    -427.846
  C     -329.753    -262.473    -427.040
  O     -331.020    -261.890    -427.294
  C     -329.918    -263.790    -426.283
  O     -330.468    -263.506    -424.955
  C     -330.859    -264.807    -426.950
  O     -330.330    -266.114    -426.688
  C     -332.168    -264.594    -426.217
  O     -333.029    -265.715    -426.297
  C     -331.653    -264.307    -424.794
  N     -332.632    -263.612    -423.954
  C     -333.380    -264.380    -423.065
  O     -333.292    -265.598    -422.966
  N     -334.285    -263.684    -422.298
  C     -334.550    -262.348    -422.377
  O     -335.382    -261.778    -421.681
  C     -333.754    -261.596    -423.366
  C     -332.843    -262.255    -424.081
  O     -330.064    -260.318    -429.028
  O     -332.519    -259.961    -428.224
  H     -329.148    -260.272    -428.708
  H     -333.828    -265.522    -425.766
  H     -334.816    -264.216    -421.621
  H     -333.946    -260.536    -423.470
  H     -332.244    -261.719    -424.823
  H     -331.346    -265.242    -424.306
  H     -332.692    -263.722    -426.631
  H     -330.939    -264.644    -428.033
  H     -328.926    -264.229    -426.129
  H     -329.147    -261.780    -426.444
  H     -329.233    -262.636    -427.990
  P     -330.756    -267.319    -427.669
  C     -328.639    -268.631    -426.866
  O     -330.015    -268.639    -427.145
  O     -329.913    -266.930    -428.980
  O     -332.221    -267.425    -427.933
  H     -328.981    -266.722    -428.782
  H     -328.399    -269.482    -426.219
  H     -328.335    -267.710    -426.344
  H     -328.069    -268.720    -427.788
  H     -329.546    -257.662    -426.303
  H     -330.794    -257.587    -427.523
  H     -329.237    -258.279    -427.908

 3  4  5  6  7  8  9  10  11  12  13  24  28  29  30  31  32 0
 6-311+G(2d,p)
 ****
 33  34 0
 6-311+G(2d,p)
 ****
 1  2  14  15  16  17  18  19  20  21  22  23  25  26  27 0
 3-21G
 ****
 35  36  37  38  39  40  41  42  43  44  45 0
 3-21G
 ****


