%nproc=1
%NoSave
%Mem=1900MB
#P OB98/GEN NMR

erre ene a

0 1
  C     -798.975    1073.725     552.854
  O     -798.043    1073.505     551.812
  H     -799.027    1072.812     553.470
  H     -799.964    1073.919     552.438
  H     -798.653    1074.554     553.487
  P     -797.687    1074.771     550.892
  C     -799.153    1073.536     549.093
  O     -798.002    1074.316     549.384
  C     -798.993    1072.844     547.742
  O     -798.996    1073.842     546.693
  C     -797.693    1072.031     547.605
  O     -797.965    1070.859     546.817
  C     -796.780    1072.963     546.831
  O     -795.748    1072.255     546.151
  C     -797.799    1073.682     545.916
  N     -797.292    1074.956     545.410
  C     -796.548    1074.927     544.227
  O     -796.323    1073.864     543.661
  N     -796.039    1076.101     543.743
  C     -796.187    1077.203     544.414
  N     -795.651    1078.332     543.882
  C     -796.940    1077.270     545.689
  C     -797.461    1076.128     546.116
  O     -796.088    1074.785     550.965
  O     -798.335    1076.048     551.319
  H     -795.338    1072.850     545.495
  H     -795.684    1073.910     550.853
  H     -797.035    1078.207     546.210
  H     -798.037    1076.094     547.038
  H     -798.043    1073.051     545.045
  H     -796.311    1073.687     547.505
  H     -797.271    1071.733     548.571
  H     -799.873    1072.206     547.576
  H     -795.123    1078.235     543.016
  H     -800.043    1074.166     549.080
  H     -795.655    1079.231     544.345
  H     -799.256    1072.804     549.894
  P     -798.267    1069.479     547.561
  C     -796.017    1068.426     546.823
  O     -797.445    1068.309     546.835
  O     -799.719    1069.172     547.798
  O     -797.508    1069.626     548.955
  H     -798.074    1069.260     549.653
  H     -795.595    1067.586     546.311
  H     -795.653    1068.451     547.829
  H     -795.737    1069.328     546.320

 6  7  8  9  10  11  12  13  14  15  16  26  30  31  32  33  35 0
 6-311+G(2d,p)
 ****
 37  38 0
 6-311+G(2d,p)
 ****
 1  2  3  4  5  17  18  19  20  21  22  23  24  25 0
 3-21G
 ****
 27  28  29  34  36  39  40  41  42  43  44  45  46 0
 3-21G
 ****


