%nproc=1
%NoSave
%Mem=1900MB
#P OB98/GEN NMR

erre ene a

0 1
  C      663.881    -275.130     788.578
  O      662.551    -275.590     788.345
  P      661.364    -274.497     788.318
  C      659.741    -276.115     787.136
  O      660.402    -274.847     787.088
  C      658.496    -276.096     786.202
  O      657.455    -275.266     786.743
  C      658.779    -275.555     784.830
  O      659.501    -276.495     784.039
  C      657.374    -275.237     784.329
  O      656.725    -276.423     783.840
  C      656.672    -274.770     785.629
  N      656.505    -273.327     785.704
  C      655.409    -272.813     785.001
  O      654.679    -273.551     784.339
  N      655.175    -271.444     785.055
  C      655.961    -270.686     785.746
  N      655.695    -269.357     785.766
  C      657.141    -271.192     786.483
  C      657.334    -272.518     786.424
  O      661.793    -273.072     788.436
  O      660.467    -274.953     789.588
  H      657.237    -276.724     783.068
  H      660.028    -274.143     789.947
  H      657.769    -270.536     787.062
  H      658.182    -272.971     786.938
  H      655.683    -275.239     785.712
  H      657.381    -274.505     783.526
  H      659.358    -274.622     784.900
  H      658.124    -277.123     786.137
  H      654.892    -269.042     785.247
  H      659.439    -276.338     788.149
  H      656.218    -268.682     786.322
  H      660.441    -276.888     786.812
  P      660.649    -275.923     783.065
  C      662.486    -277.281     784.305
  O      662.044    -276.017     783.839
  O      660.329    -274.342     783.019
  O      660.648    -276.506     781.690
  H      660.558    -273.994     782.139
  H      663.566    -277.213     784.522
  H      662.320    -278.058     783.558
  H      661.948    -277.552     785.229
  H      664.553    -275.962     788.568
  H      663.929    -274.645     789.530
  H      664.159    -274.438     787.811

 3  4  5  6  7  8  9  10  11  12  13  23  27  28  29  30  32 0
 6-311+G(2d,p)
 ****
 34  35 0
 6-311+G(2d,p)
 ****
 1  2  14  15  16  17  18  19  20  21  22  24  25  26 0
 3-21G
 ****
 31  33  36  37  38  39  40  41  42  43  44  45  46 0
 3-21G
 ****


