%nproc=1
%NoSave
%Mem=1900MB
#P OB98/GEN NMR

erre ene a

0 1
  C     -849.884     595.973      24.385
  O     -850.894     596.959      24.513
  P     -851.084     597.666      25.943
  C     -853.570     596.801      25.985
  O     -852.316     596.904      26.642
  C     -854.568     596.033      26.865
  O     -854.171     594.646      26.932
  C     -854.635     596.501      28.313
  O     -855.383     597.708      28.443
  C     -855.254     595.281      28.985
  O     -856.685     595.267      28.792
  C     -854.599     594.127      28.210
  N     -853.481     593.502      28.927
  C     -853.822     592.650      29.969
  O     -854.992     592.400      30.293
  N     -852.767     592.092      30.644
  C     -851.449     592.354      30.429
  O     -850.540     591.856      31.104
  C     -851.141     593.295      29.349
  C     -852.168     593.816      28.648
  O     -851.676     599.079      25.503
  O     -849.818     597.717      26.743
  H     -852.142     599.028      24.654
  H     -857.011     594.484      29.281
  H     -852.988     591.447      31.395
  H     -850.109     593.534      29.146
  H     -851.967     594.520      27.841
  H     -855.337     593.338      27.994
  H     -855.066     595.262      30.069
  H     -853.618     596.665      28.703
  H     -855.552     596.085      26.387
  H     -853.446     596.286      25.030
  H     -853.947     597.815      25.792
  P     -855.509     598.308      29.923
  C     -858.123     598.211      30.092
  O     -856.870     597.726      30.535
  O     -855.849     599.843      29.597
  O     -854.288     598.113      30.761
  H     -856.494     599.943      28.869
  H     -858.890     597.469      30.333
  H     -858.127     598.377      29.010
  H     -858.356     599.152      30.605
  H     -849.878     595.596      23.384
  H     -850.079     595.172      25.066
  H     -848.932     596.407      24.608

 3  4  5  6  7  8  9  10  11  12  13  24  28  29  30  31  32 0
 6-311+G(2d,p)
 ****
 33  34 0
 6-311+G(2d,p)
 ****
 1  2  14  15  16  17  18  19  20  21  22  23  25  26  27 0
 3-21G
 ****
 35  36  37  38  39  40  41  42  43  44  45 0
 3-21G
 ****


