%nproc=1
%NoSave
%Mem=1900MB
#P OB98/GEN NMR

erre ene a

0 1
  C       -1.032      92.899     -13.658
  O       -0.966      91.844     -14.606
  P        0.152      91.940     -15.753
  C        0.447      93.291     -17.939
  O       -0.347      93.067     -16.782
  C       -0.320      94.100     -18.978
  O       -1.308      93.240     -19.608
  C       -1.065      95.317     -18.406
  O       -0.880      96.439     -19.280
  C       -2.526      94.908     -18.485
  O       -3.392      96.035     -18.562
  C       -2.503      94.037     -19.741
  N       -6.569      93.208     -22.618
  C       -5.455      93.984     -22.868
  N       -5.454      94.681     -24.026
  N       -4.434      94.073     -22.057
  C       -4.557      93.297     -20.952
  C       -5.606      92.480     -20.597
  C       -6.755      92.438     -21.477
  O       -7.808      91.841     -21.269
  N       -5.359      91.838     -19.411
  C       -4.167      92.269     -19.045
  N       -3.660      93.192     -19.923
  O       -0.047      90.572     -16.559
  O        1.554      92.083     -15.267
  H       -4.261      95.708     -18.864
  H        0.795      90.079     -16.585
  H       -7.333      93.189     -23.270
  H       -3.650      91.966     -18.143
  H       -2.399      94.661     -20.638
  H       -2.785      94.327     -17.594
  H       -6.190      94.629     -24.712
  H       -0.766      95.589     -17.388
  H       -4.635      95.238     -24.238
  H        0.380      94.410     -19.764
  H        0.730      92.326     -18.373
  H        1.358      93.824     -17.644
  P       -0.592      97.849     -18.565
  C       -2.102      99.851     -17.865
  O       -1.987      98.634     -18.575
  O        0.296      98.633     -19.640
  O        0.084      97.729     -17.240
  H        0.844      99.311     -19.199
  H       -1.135     100.212     -17.502
  H       -2.765      99.703     -17.009
  H       -2.536     100.607     -18.524
  H       -1.818      92.702     -12.959
  H       -1.227      93.821     -14.164
  H       -0.100      92.969     -13.137

 3  4  5  6  7  8  9  10  11  12  23  26  30  31  33  0
 6-311+G(2d,p)
 ****
 35  36  37  38 0
 6-311+G(2d,p)
 ****
 1  2  13  14  15  16  17  18  19  20  21  22  24  25  27  28  29 0
 3-21G
 ****
 32  34  39  40  41  42  43  44  45  46  47  48  49 0
 3-21G
 ****


