%nproc=1
%NoSave
%Mem=1900MB
#P OB98/GEN NMR

erre ene a

0 1
  C     -714.250     -22.107    -314.640
  O     -714.833     -22.159    -315.928
  H     -713.557     -21.261    -314.603
  H     -713.692     -23.025    -314.438
  H     -715.023     -21.967    -313.882
  P     -715.803     -23.404    -316.217
  C     -717.972     -22.225    -315.375
  O     -716.981     -23.223    -315.143
  C     -719.361     -22.817    -315.134
  O     -719.639     -23.873    -316.082
  C     -719.534     -23.454    -313.762
  O     -719.759     -22.500    -312.738
  C     -720.760     -24.307    -314.011
  O     -721.941     -23.472    -314.032
  C     -720.456     -24.867    -315.420
  N     -719.769     -26.156    -315.388
  C     -720.578     -27.297    -315.280
  O     -721.800     -27.194    -315.211
  N     -719.972     -28.526    -315.228
  C     -718.683     -28.625    -315.282
  N     -718.136     -29.876    -315.213
  C     -717.792     -27.458    -315.409
  C     -718.398     -26.267    -315.457
  O     -714.993     -24.657    -315.629
  O     -716.258     -23.570    -317.632
  H     -721.736     -22.709    -314.603
  H     -715.566     -25.465    -315.649
  H     -716.720     -27.581    -315.448
  H     -717.809     -25.363    -315.544
  H     -721.375     -24.976    -316.007
  H     -720.926     -25.072    -313.242
  H     -718.696     -24.110    -313.512
  H     -720.097     -22.021    -315.301
  H     -718.768     -30.652    -315.061
  H     -717.884     -21.883    -316.408
  H     -717.149     -30.022    -315.063
  H     -717.819     -21.383    -314.703
  P     -719.115     -22.793    -311.293
  C     -717.312     -20.922    -311.393
  O     -717.576     -22.321    -311.365
  O     -719.000     -24.387    -311.263
  O     -719.897     -22.260    -310.133
  H     -719.211     -24.737    -310.380
  H     -716.256     -20.759    -311.441
  H     -717.703     -20.467    -310.507
  H     -717.779     -20.488    -312.253

 6  7  8  9  10  11  12  13  14  15  16  26  30  31  32  33  35 0
 6-311+G(2d,p)
 ****
 37  38 0
 6-311+G(2d,p)
 ****
 1  2  3  4  5  17  18  19  20  21  22  23  24  25 0
 3-21G
 ****
 27  28  29  34  36  39  40  41  42  43  44  45  46 0
 3-21G
 ****


