%nproc=1
%NoSave
%Mem=1900MB
#P OB98/GEN NMR

erre ene a

0 1
  C     -120.625    -475.000      69.677
  O     -120.689    -476.387      69.413
  H     -120.350    -474.479      68.758
  H     -119.861    -474.793      70.443
  H     -121.596    -474.625      70.015
  P     -121.102    -477.329      70.638
  C     -123.416    -478.118      69.717
  O     -122.697    -477.334      70.680
  C     -124.712    -478.662      70.319
  O     -124.377    -479.763      71.220
  C     -125.502    -477.638      71.146
  O     -126.897    -477.979      71.074
  C     -124.988    -477.914      72.564
  O     -125.796    -477.298      73.531
  C     -124.932    -479.437      72.524
  N     -124.600    -480.301      77.549
  C     -125.581    -479.771      76.787
  N     -125.608    -479.576      75.460
  C     -124.462    -480.038      74.884
  C     -123.397    -480.636      75.525
  C     -123.485    -480.757      76.927
  N     -122.483    -481.307      77.691
  N     -122.413    -480.975      74.618
  C     -122.893    -480.594      73.450
  N     -124.125    -480.010      73.569
  O     -120.701    -476.452      71.927
  O     -120.469    -478.677      70.654
  H     -125.514    -477.567      74.433
  H     -119.817    -476.717      72.232
  H     -126.467    -479.434      77.326
  H     -122.387    -480.713      72.496
  H     -125.938    -479.877      72.572
  H     -123.965    -477.488      72.682
  H     -125.356    -476.595      70.816
  H     -125.326    -479.098      69.525
  H     -122.778    -478.936      69.395
  H     -123.645    -477.473      68.848
  H     -122.622    -481.341      78.693
  H     -121.638    -481.618      77.256
  P     -127.998    -476.821      71.048
  C     -128.834    -476.785      68.563
  O     -128.026    -476.182      69.564
  O     -127.270    -475.653      71.876
  O     -129.329    -477.148      71.639
  H     -127.960    -475.077      72.295
  H     -128.735    -476.239      67.648
  H     -129.857    -476.774      68.876
  H     -128.518    -477.796      68.411

 6  7  8  9  10  11  12  13  14  15  25  28  32  33  34  35 0
 6-311+G(2d,p)
 ****
 36  37  40 0
 6-311+G(2d,p)
 ****
 1  2  3  4  5  16  17  18  19  20  21  22  23  24 0
 3-21G
 ****
 26  27  29  30  31  38  39 41  42  43  44  45  46  47  48 0
 3-21G
 ****


