%nproc=1
%NoSave
%Mem=1900MB
#P OB98/GEN NMR

erre ene a

0 1
  C      239.224    -340.219     252.650
  O      238.078    -341.065     252.484
  P      238.279    -342.647     252.643
  C      236.728    -342.797     254.727
  O      238.012    -343.046     254.172
  C      236.725    -343.095     256.228
  O      237.370    -342.051     256.983
  C      235.331    -343.221     256.825
  O      234.784    -344.514     256.604
  C      235.621    -343.018     258.303
  O      236.131    -344.239     258.874
  C      236.721    -341.949     258.272
  N      236.536    -337.912     261.421
  C      237.085    -339.140     261.558
  N      237.077    -340.168     260.684
  C      236.431    -339.827     259.558
  C      235.820    -338.616     259.273
  C      235.887    -337.627     260.266
  N      235.328    -336.377     260.118
  N      235.246    -338.640     258.019
  C      235.518    -339.841     257.549
  N      236.225    -340.596     258.445
  O      239.864    -342.826     252.489
  O      237.538    -343.456     251.631
  H      236.708    -344.647     258.202
  H      240.059    -343.671     252.044
  H      237.599    -339.322     262.496
  H      235.230    -340.201     256.570
  H      237.485    -342.115     259.043
  H      234.729    -342.746     258.874
  H      234.672    -342.424     256.456
  H      237.281    -344.028     256.389
  H      235.976    -343.408     254.221
  H      235.444    -335.710     260.863
  H      234.865    -336.151     259.251
  H      236.454    -341.754     254.535
  P      233.616    -344.641     255.512
  C      235.174    -345.996     253.935
  O      234.356    -344.856     254.108
  O      233.042    -343.148     255.427
  O      232.555    -345.631     255.854
  H      232.094    -343.168     255.196
  H      235.344    -346.148     252.868
  H      234.695    -346.891     254.344
  H      236.138    -345.838     254.427
  H      238.936    -339.197     252.516
  H      239.967    -340.478     251.925
  H      239.625    -340.350     253.633

 3  4  5  6  7  8  9  10  11  12  22  25  29  30  31  32 0
 6-311+G(2d,p)
 ****
 33  36  37 0
 6-311+G(2d,p)
 ****
 1  2  13  14  15  16  17  18  19  20  21  23  24  26 0
 3-21G
 ****
 27  28  34  35  38  39  40  41  42  43  44  45  46  47  48 0
 3-21G
 ****


