%nproc=1
%NoSave
%Mem=1900MB
#P OB98/GEN NMR

erre ene a

0 1
  C       18.049     752.372    -647.288
  O       16.834     752.993    -647.675
  H       18.881     752.974    -647.666
  H       18.117     751.376    -647.732
  H       18.121     752.312    -646.201
  P       15.457     752.429    -647.087
  C       14.048     754.472    -646.358
  O       14.331     753.526    -647.393
  C       13.445     755.742    -646.959
  O       14.415     756.421    -647.776
  C       12.245     755.477    -647.872
  O       11.082     755.179    -647.112
  C       12.187     756.792    -648.644
  O       11.549     757.817    -647.865
  C       13.693     757.105    -648.824
  N       14.200     756.722    -650.140
  C       13.950     757.609    -651.191
  O       13.296     758.655    -651.047
  N       14.462     757.254    -652.415
  C       15.102     756.090    -652.709
  O       15.487     755.790    -653.836
  C       15.320     755.169    -651.572
  C       14.862     755.527    -650.358
  O       15.494     751.957    -645.663
  O       15.070     751.236    -648.089
  H       10.604     757.570    -647.798
  H       15.320     750.382    -647.692
  H       14.266     757.875    -653.185
  H       15.822     754.227    -651.762
  H       15.009     754.862    -649.510
  H       13.882     758.182    -648.677
  H       11.637     756.710    -649.577
  H       12.469     754.672    -648.580
  H       13.162     756.407    -646.130
  H       14.982     754.718    -645.842
  H       13.366     754.008    -645.639
  P        9.816     754.489    -647.809
  C        9.794     752.658    -646.006
  O        9.037     753.661    -646.659
  O       10.110     753.701    -649.037
  O        8.831     755.701    -648.113
  H        8.832     755.899    -649.082
  H        9.186     752.176    -645.269
  H       10.643     753.104    -645.532
  H       10.124     751.937    -646.724

 6  7  8  9  10  11  12  13  14  15  16  26  31  32  33  34  35 0
 6-311+G(2d,p)
 ****
 36  37 0
 6-311+G(2d,p)
 ****
 1  2  3  4  5  17  18  19  20  21  22  23  24  25 0
 3-21G
 ****
 27  28  29  30  38  39  40  41  42  43  44  45 0
 3-21G
 ****


