%nproc=1
%NoSave
%Mem=1900MB
#P OB98/GEN NMR

erre ene a

0 1
  C      -44.963      43.326    -392.268
  O      -44.079      42.827    -393.258
  P      -42.637      43.492    -393.476
  C      -41.128      41.979    -392.043
  O      -41.803      43.230    -392.127
  C      -39.645      42.187    -391.757
  O      -39.097      43.096    -392.739
  C      -39.372      42.781    -390.377
  O      -38.162      42.218    -389.852
  C      -39.126      44.261    -390.650
  O      -38.303      44.851    -389.633
  C      -38.497      44.208    -392.044
  N      -36.543      48.698    -393.582
  C      -36.015      47.700    -392.844
  N      -36.601      46.544    -392.453
  C      -37.843      46.450    -392.955
  C      -38.510      47.393    -393.725
  C      -37.807      48.565    -394.041
  N      -38.338      49.578    -394.811
  N      -39.787      46.953    -394.029
  C      -39.880      45.770    -393.465
  N      -38.726      45.416    -392.811
  O      -42.655      44.913    -393.921
  O      -41.910      42.544    -394.539
  H      -38.131      45.776    -389.903
  H      -41.378      43.076    -395.159
  H      -34.989      47.846    -392.520
  H      -40.756      45.136    -393.491
  H      -37.413      44.028    -391.995
  H      -40.082      44.794    -390.658
  H      -40.197      42.628    -389.671
  H      -39.126      41.226    -391.866
  H      -41.238      41.460    -393.003
  H      -37.724      50.322    -395.085
  H      -39.209      49.403    -395.297
  H      -41.594      41.364    -391.264
  P      -38.005      42.266    -388.253
  C      -39.595      40.301    -387.634
  O      -39.390      41.693    -387.689
  O      -37.571      43.609    -387.771
  O      -36.933      41.097    -388.016
  H      -36.956      40.436    -388.741
  H      -40.604      40.107    -387.258
  H      -38.871      39.839    -386.952
  H      -39.497      39.856    -388.632
  H      -45.868      42.755    -392.277
  H      -45.187      44.352    -392.474
  H      -44.501      43.248    -391.306

 3  4  5  6  7  8  9  10  11  12  22  25  29  30  31  32 0
 6-311+G(2d,p)
 ****
 33  36  37 0
 6-311+G(2d,p)
 ****
 1  2  13  14  15  16  17  18  19  20  21  23  24  26 0
 3-21G
 ****
 27  28  34  35  38  39  40  41  42  43  44  45  46  47  48 0
 3-21G
 ****


