%nproc=1
%NoSave
%Mem=1900MB
#P OB98/GEN NMR

erre ene a

0 1
  C      398.036    -516.514    -104.286
  O      397.335    -515.294    -104.070
  P      396.104    -514.965    -105.047
  C      397.494    -512.954    -105.930
  O      396.250    -513.401    -105.412
  C      397.522    -511.428    -106.032
  O      396.544    -510.982    -106.982
  C      397.183    -510.709    -104.727
  O      398.302    -510.617    -103.861
  C      396.801    -509.337    -105.254
  O      397.995    -508.578    -105.552
  C      396.063    -509.677    -106.548
  N      391.862    -506.886    -105.694
  C      393.172    -506.559    -105.725
  N      394.229    -507.359    -105.955
  C      393.844    -508.633    -106.119
  C      392.545    -509.124    -106.074
  C      391.517    -508.181    -105.865
  N      390.186    -508.519    -105.854
  N      392.538    -510.484    -106.288
  C      393.788    -510.812    -106.464
  N      394.622    -509.723    -106.383
  O      394.839    -514.998    -104.064
  O      395.943    -515.898    -106.204
  H      398.496    -508.507    -104.723
  H      394.028    -515.171    -104.574
  H      393.402    -505.505    -105.551
  H      394.155    -511.814    -106.675
  H      396.276    -508.976    -107.353
  H      396.229    -508.748    -104.532
  H      396.311    -511.164    -104.234
  H      398.516    -511.128    -106.395
  H      397.652    -513.380    -106.929
  H      389.511    -507.770    -105.884
  H      389.921    -509.446    -106.181
  H      398.299    -513.306    -105.279
  P      398.063    -511.021    -102.318
  C      396.752    -508.808    -101.935
  O      397.841    -509.624    -101.558
  O      399.513    -511.496    -101.840
  O      397.016    -512.060    -102.114
  H      399.430    -512.122    -101.091
  H      396.557    -508.085    -101.136
  H      395.847    -509.400    -102.099
  H      396.995    -508.260    -102.842
  H      398.825    -516.604    -103.569
  H      398.449    -516.518    -105.273
  H      397.361    -517.337    -104.178

 3  4  5  6  7  8  9  10  11  12  22  25  29  30  31  32 0
 6-311+G(2d,p)
 ****
 33  36  37 0
 6-311+G(2d,p)
 ****
 1  2  13  14  15  16  17  18  19  20  21  23  24  26 0
 3-21G
 ****
 27  28  34  35  38  39  40  41  42  43  44  45  46  47  48 0
 3-21G
 ****


