%nproc=1
%NoSave
%Mem=1900MB
#P OB98/GEN NMR

erre ene a

0 1
  C      479.368     126.294    -283.768
  O      478.454     125.435    -284.418
  H      478.811     126.959    -283.101
  H      479.909     126.904    -284.498
  H      480.076     125.713    -283.169
  P      479.012     124.401    -285.507
  C      480.787     122.815    -284.511
  O      479.402     123.059    -284.715
  C      481.115     121.348    -284.827
  O      482.552     121.190    -284.720
  C      480.448     120.371    -283.847
  O      479.696     119.352    -284.496
  C      481.598     119.937    -282.947
  O      481.432     118.665    -282.353
  C      482.818     120.061    -283.860
  N      484.081     120.248    -283.143
  C      484.938     119.155    -283.061
  O      484.731     118.055    -283.570
  N      486.102     119.367    -282.366
  C      486.474     120.524    -281.755
  O      487.532     120.656    -281.149
  C      485.515     121.639    -281.855
  C      484.379     121.452    -282.531
  O      480.080     124.925    -286.409
  O      477.710     123.964    -286.330
  H      480.730     118.740    -281.678
  H      477.689     124.435    -287.188
  H      486.736     118.583    -282.312
  H      485.774     122.571    -281.369
  H      483.649     122.249    -282.628
  H      482.922     119.173    -284.486
  H      481.688     120.662    -282.125
  H      479.695     120.889    -283.233
  H      480.835     121.139    -285.863
  H      481.021     123.040    -283.466
  H      481.378     123.473    -285.158
  P      478.101     119.261    -284.510
  C      477.348     120.850    -286.455
  O      477.595     119.528    -286.005
  O      477.407     120.003    -283.415
  O      477.817     117.691    -284.286
  H      476.981     117.624    -283.782
  H      477.019     120.825    -287.473
  H      478.248     121.425    -286.385
  H      476.590     121.298    -285.847

 6  7  8  9  10  11  12  13  14  15  16  26  31  32  33  34  35 0
 6-311+G(2d,p)
 ****
 36  37 0
 6-311+G(2d,p)
 ****
 1  2  3  4  5  17  18  19  20  21  22  23  24  25 0
 3-21G
 ****
 27  28  29  30  38  39  40  41  42  43  44  45 0
 3-21G
 ****


