%nproc=1
%NoSave
%Mem=1900MB
#P OB98/GEN NMR

erre ene a

0 1
  C       94.982      58.927    -689.094
  O       96.238      59.373    -688.608
  P       97.450      59.647    -689.620
  C       98.708      57.521    -688.917
  O       98.098      58.222    -689.995
  C      100.226      57.679    -688.948
  O      100.774      57.149    -687.708
  C      100.932      56.936    -690.107
  O      102.059      57.738    -690.483
  C      101.410      55.657    -689.453
  O      102.463      55.033    -690.164
  C      101.790      56.181    -688.078
  N      104.577      54.137    -684.308
  C      104.832      55.148    -685.162
  N      104.044      55.634    -686.152
  C      102.895      54.927    -686.221
  C      102.519      53.844    -685.435
  C      103.417      53.458    -684.423
  N      103.169      52.451    -683.526
  N      101.285      53.360    -685.843
  C      100.936      54.145    -686.854
  N      101.849      55.131    -687.071
  O       98.429      60.686    -689.171
  O       96.723      60.099    -690.982
  H      102.134      54.761    -691.039
  H       96.830      61.059    -691.106
  H      105.790      55.671    -685.034
  H      100.040      54.028    -687.450
  H      102.755      56.702    -688.085
  H      100.579      54.944    -689.389
  H      100.274      56.768    -690.973
  H      100.463      58.743    -688.979
  H       98.446      56.466    -689.022
  H      103.821      52.346    -682.755
  H      102.213      52.116    -683.407
  H       98.312      57.890    -687.966
  P      102.485      57.854    -692.023
  C      104.858      56.950    -691.707
  O      103.580      56.715    -692.284
  O      102.857      59.220    -692.497
  O      101.205      57.297    -692.814
  H      101.236      57.577    -693.755
  H      105.430      57.632    -692.360
  H      105.397      56.001    -691.635
  H      104.774      57.397    -690.716
  H       94.306      58.801    -688.274
  H       95.107      57.992    -689.600
  H       94.586      59.651    -689.775

 3  4  5  6  7  8  9  10  11  12  22  25  29  30  31  32 0
 6-311+G(2d,p)
 ****
 33  36  37 0
 6-311+G(2d,p)
 ****
 1  2  13  14  15  16  17  18  19  20  21  23  24  26 0
 3-21G
 ****
 27  28  34  35  38  39  40  41  42  43  44  45  46  47  48 0
 3-21G
 ****


