%nproc=1
%NoSave
%Mem=1900MB
#P OB98/GEN NMR

erre ene a

0 1
  C      221.181    -394.588    -854.848
  O      221.299    -394.157    -853.506
  H      220.332    -395.269    -854.924
  H      222.093    -395.122    -855.145
  H      221.016    -393.734    -855.512
  P      222.383    -393.006    -853.208
  C      220.546    -391.130    -853.322
  O      221.762    -391.659    -853.820
  C      220.586    -389.607    -853.299
  O      221.567    -389.177    -852.318
  C      220.970    -388.976    -854.648
  O      220.247    -387.756    -854.804
  C      222.448    -388.667    -854.474
  O      222.886    -387.636    -855.363
  C      222.509    -388.310    -852.985
  N      223.853    -388.449    -852.424
  C      224.862    -387.663    -852.997
  O      224.597    -386.904    -853.935
  N      226.145    -387.782    -852.533
  C      226.414    -388.662    -851.615
  N      227.712    -388.749    -851.208
  C      225.395    -389.540    -851.005
  C      224.147    -389.381    -851.450
  O      223.552    -393.386    -854.235
  O      222.818    -392.918    -851.783
  H      222.810    -387.967    -856.284
  H      223.228    -393.614    -855.121
  H      225.673    -390.266    -850.255
  H      223.335    -389.977    -851.061
  H      222.178    -387.275    -852.817
  H      223.050    -389.559    -854.674
  H      220.771    -389.644    -855.490
  H      219.609    -389.232    -852.962
  H      228.383    -388.142    -851.663
  H      220.354    -391.504    -852.312
  H      228.045    -389.433    -850.545
  H      219.735    -391.482    -853.971
  P      219.682    -387.352    -856.249
  C      217.369    -386.618    -855.348
  O      218.084    -387.465    -856.245
  O      220.365    -387.996    -857.407
  O      219.911    -385.765    -856.281
  H      220.229    -385.527    -857.177
  H      216.319    -386.797    -855.449
  H      217.581    -385.595    -855.578
  H      217.671    -386.827    -854.343

 6  7  8  9  10  11  12  13  14  15  16  26  30  31  32  33  35 0
 6-311+G(2d,p)
 ****
 37  38 0
 6-311+G(2d,p)
 ****
 1  2  3  4  5  17  18  19  20  21  22  23  24  25 0
 3-21G
 ****
 27  28  29  34  36  39  40  41  42  43  44  45  46 0
 3-21G
 ****


