%nproc=1
%NoSave
%Mem=1900MB
#P OB98/GEN NMR

erre ene a

0 1
  C      -46.554     255.823     257.203
  O      -47.643     255.641     256.319
  H      -46.625     256.819     257.646
  H      -45.606     255.746     256.662
  H      -46.592     255.076     258.001
  P      -47.693     254.252     255.517
  C      -48.160     252.365     257.216
  O      -48.727     253.341     256.351
  C      -49.210     251.848     258.200
  O      -49.671     252.964     259.009
  C      -50.441     251.236     257.519
  O      -50.910     250.132     258.303
  C      -51.464     252.357     257.572
  O      -52.801     251.876     257.483
  C      -51.107     253.018     258.903
  N      -55.224     255.926     259.654
  C      -55.006     254.606     259.828
  N      -53.862     253.913     259.624
  C      -52.862     254.742     259.256
  C      -52.937     256.107     259.038
  C      -54.193     256.707     259.245
  N      -54.431     258.044     259.038
  N      -51.709     256.591     258.618
  C      -50.913     255.539     258.594
  N      -51.575     254.394     258.952
  O      -46.370     253.616     255.242
  O      -48.546     254.645     254.223
  H      -53.412     252.638     257.579
  H      -49.342     255.161     254.460
  H      -55.861     254.021     260.166
  H      -49.863     255.550     258.311
  H      -51.539     252.496     259.766
  H      -51.297     253.050     256.738
  H      -50.248     250.903     256.497
  H      -48.735     251.132     258.885
  H      -47.317     252.795     257.770
  H      -55.365     258.394     259.213
  H      -53.681     258.646     258.738
  H      -47.783     251.545     256.596
  P      -51.355     248.781     257.566
  C      -49.620     247.923     255.859
  O      -50.040     247.921     257.218
  O      -52.320     248.950     256.434
  O      -52.016     247.928     258.757
  H      -52.828     247.495     258.426
  H      -48.742     247.320     255.756
  H      -49.402     248.925     255.555
  H      -50.400     247.525     255.244

 6  7  8  9  10  11  12  13  14  15  25  28  32  33  34  35 0
 6-311+G(2d,p)
 ****
 36  39  40 0
 6-311+G(2d,p)
 ****
 1  2  3  4  5  16  17  18  19  20  21  22  23  24 0
 3-21G
 ****
 26  27  29  30  31  37  38  41  42  43  44  45  46  47 0
 3-21G
 ****
 48 0
 3-21G
 ****


