%nproc=1
%NoSave
%Mem=1900MB
#P OB98/GEN NMR

erre ene a

0 1
  C      -54.724    1194.261    -471.225
  O      -56.095    1194.053    -470.934
  P      -56.759    1194.769    -469.659
  C      -58.350    1192.792    -469.227
  O      -58.237    1194.195    -469.487
  C      -59.806    1192.336    -469.331
  O      -60.616    1193.004    -468.342
  C      -60.459    1192.657    -470.679
  O      -60.024    1191.752    -471.670
  C      -61.943    1192.557    -470.328
  O      -62.375    1191.180    -470.316
  C      -61.964    1193.126    -468.885
  N      -65.701    1196.338    -470.170
  C      -65.464    1195.045    -470.503
  N      -64.424    1194.274    -470.150
  C      -63.547    1194.966    -469.398
  C      -63.637    1196.289    -469.009
  C      -64.785    1197.003    -469.404
  N      -65.065    1198.295    -469.038
  N      -62.523    1196.652    -468.253
  C      -61.794    1195.573    -468.214
  N      -62.399    1194.504    -468.821
  O      -56.637    1196.263    -469.629
  O      -55.977    1194.127    -468.410
  H      -62.439    1190.889    -471.240
  H      -55.502    1194.838    -467.918
  H      -66.234    1194.583    -471.111
  H      -60.816    1195.488    -467.737
  H      -62.606    1192.542    -468.225
  H      -62.569    1193.105    -471.022
  H      -60.225    1193.684    -470.964
  H      -59.846    1191.253    -469.121
  H      -57.975    1192.606    -468.212
  H      -65.994    1198.650    -469.250
  H      -64.569    1198.684    -468.231
  H      -57.744    1192.241    -469.939
  P      -60.051    1192.174    -473.214
  C      -61.515    1190.126    -473.751
  O      -60.324    1190.842    -474.060
  O      -58.909    1192.999    -473.686
  O      -61.453    1192.976    -473.356
  H      -61.348    1193.668    -474.025
  H      -61.359    1189.546    -472.840
  H      -61.736    1189.443    -474.555
  H      -62.364    1190.812    -473.624
  H      -54.458    1193.710    -472.103
  H      -54.130    1193.927    -470.400
  H      -54.549    1195.303    -471.392

 3  4  5  6  7  8  9  10  11  12  22  25  29  30  31  32 0
 6-311+G(2d,p)
 ****
 33  36  37 0
 6-311+G(2d,p)
 ****
 1  2  13  14  15  16  17  18  19  20  21  23  24  26 0
 3-21G
 ****
 27  28  34  35  38  39  40  41  42  43  44  45  46  47  48 0
 3-21G
 ****


