%nproc=1
%NoSave
%Mem=1900MB
#P OB98/GEN NMR

erre ene a

0 1
  C     -962.984    -682.472    -897.580
  O     -964.068    -681.630    -897.940
  P     -963.689    -680.242    -898.650
  C     -962.360    -678.089    -897.920
  O     -962.854    -679.404    -897.550
  C     -962.649    -677.096    -896.820
  O     -962.176    -677.549    -895.550
  C     -961.965    -675.746    -897.020
  O     -962.663    -674.953    -898.020
  C     -962.024    -675.160    -895.650
  O     -963.292    -674.473    -895.420
  C     -961.909    -676.409    -894.740
  N     -960.614    -676.501    -894.070
  C     -960.391    -675.532    -893.090
  O     -961.239    -674.636    -892.870
  N     -959.180    -675.544    -892.410
  C     -958.295    -676.460    -892.690
  N     -957.110    -676.430    -892.000
  C     -958.502    -677.474    -893.750
  C     -959.684    -677.463    -894.380
  O     -965.094    -679.464    -898.720
  O     -963.047    -680.363    -900.000
  H     -963.268    -674.198    -894.480
  H     -965.134    -678.823    -899.450
  H     -957.714    -678.215    -893.950
  H     -959.929    -678.158    -895.170
  H     -962.695    -676.402    -893.980
  H     -961.222    -674.423    -895.460
  H     -960.905    -675.876    -897.350
  H     -963.743    -676.945    -896.740
  H     -957.021    -675.694    -891.320
  H     -962.834    -677.779    -898.850
  H     -956.376    -677.103    -892.150
  H     -961.265    -678.186    -898.100
  P     -962.127    -673.470    -898.270
  C     -961.614    -671.447    -896.780
  O     -962.232    -672.767    -896.850
  O     -963.380    -672.854    -899.090
  O     -960.838    -673.313    -899.030
  H     -963.148    -671.927    -899.390
  H     -961.945    -671.003    -895.820
  H     -961.967    -670.830    -897.600
  H     -960.540    -671.558    -896.840
  H     -963.361    -683.361    -897.118
  H     -962.345    -681.957    -896.894
  H     -962.429    -682.733    -898.457

 3  4  5  6  7  8  9  10  11  12  13  21  23  27  28  29  30  32 0
 6-311+G(2d,p)
 ****
 34  35 0
 6-311+G(2d,p)
 ****
 1  2  14  15  16  17  18  19  20  22  24  25  26 0
 3-21G
 ****
 31  33  36  37  38  39  40  41  42  43  44  45  46 0
 3-21G
 ****


