%nproc=1
%NoSave
%Mem=1900MB
#P OB98/GEN NMR

erre ene a

0 1
  C      242.789      15.189    -995.735
  O      242.906      15.094    -994.311
  P      241.648      15.491    -993.398
  C      240.957      15.394    -990.907
  O      241.944      15.077    -991.877
  C      241.149      14.547    -989.643
  O      240.830      13.143    -989.893
  C      242.601      14.510    -989.168
  O      243.123      15.717    -988.633
  C      242.633      13.287    -988.285
  O      242.153      13.560    -986.971
  C      241.640      12.332    -989.022
  N      242.339      11.277    -989.786
  C      242.034       9.970    -989.411
  O      241.282       9.687    -988.482
  N      242.656       8.989    -990.143
  C      243.569       9.205    -991.152
  O      244.114       8.277    -991.743
  C      243.869      10.600    -991.469
  C      243.234      11.562    -990.784
  O      240.313      15.096    -993.911
  O      241.767      17.106    -993.334
  H      241.377      14.134    -987.062
  H      240.864      17.474    -993.408
  H      242.457       8.038    -989.888
  H      244.573      10.800    -992.251
  H      243.445      12.607    -991.007
  H      240.962      11.850    -988.304
  H      243.652      12.884    -988.174
  H      243.237      14.291    -990.043
  H      240.481      14.912    -988.870
  H      239.954      15.222    -991.335
  H      241.005      16.467    -990.676
  P      244.429      16.442    -989.217
  C      244.725      18.873    -990.118
  O      244.221      18.031    -989.100
  O      244.987      15.929    -990.504
  O      245.497      16.174    -988.034
  H      246.385      16.088    -988.440
  H      244.510      19.916    -989.864
  H      244.272      18.635    -991.077
  H      245.813      18.753    -990.187
  H      243.710      14.890    -996.189
  H      242.568      16.200    -996.008
  H      242.001      14.548    -996.072

 3  4  5  6  7  8  9  10  11  12  13  23  28  29  30  31  32 0
 6-311+G(2d,p)
 ****
 33  34 0
 6-311+G(2d,p)
 ****
 1  2  14  15  16  17  18  19  20  21  22  24  25  26  27 0
 3-21G
 ****
 35  36  37  38  39  40  41  42  43  44  45 0
 3-21G
 ****


