%nproc=1
%NoSave
%Mem=1900MB
#P OB98/GEN NMR

erre ene a

0 1
  C     -300.543     626.057    -446.038
  O     -300.040     625.170    -445.050
  P     -300.233     625.458    -443.480
  C     -300.736     622.959    -443.061
  O     -299.913     624.070    -442.748
  C     -300.035     621.646    -442.667
  O     -298.861     621.483    -443.493
  C     -299.582     621.589    -441.205
  O     -299.734     620.228    -440.760
  C     -298.124     621.969    -441.279
  O     -297.374     621.520    -440.167
  C     -297.721     621.314    -442.615
  N     -296.520     621.912    -443.194
  C     -295.498     621.035    -443.566
  O     -295.595     619.820    -443.391
  N     -294.363     621.555    -444.151
  C     -294.242     622.848    -444.268
  N     -293.128     623.328    -444.892
  C     -295.260     623.804    -443.785
  C     -296.361     623.268    -443.291
  O     -301.538     626.075    -443.113
  O     -298.960     626.341    -443.080
  H     -297.697     620.622    -439.916
  H     -299.087     627.307    -443.255
  H     -295.087     624.873    -443.877
  H     -297.171     623.889    -442.938
  H     -297.579     620.228    -442.477
  H     -298.022     623.063    -441.329
  H     -300.176     622.238    -440.556
  H     -300.713     620.818    -442.888
  H     -292.532     622.637    -445.357
  H     -300.916     622.957    -444.140
  H     -293.116     624.256    -445.305
  H     -301.703     623.055    -442.548
  P     -300.821     619.917    -439.612
  C     -302.178     618.096    -440.891
  O     -301.309     618.398    -439.808
  O     -302.096     620.738    -440.144
  O     -300.473     620.341    -438.229
  H     -302.662     620.969    -439.382
  H     -302.393     617.022    -440.879
  H     -301.690     618.334    -441.845
  H     -303.108     618.648    -440.798
  H     -300.307     625.679    -447.011
  H     -300.097     627.021    -445.912
  H     -301.605     626.140    -445.936

 3  4  5  6  7  8  9  10  11  12  13  23  27  28  29  30  32 0
 6-311+G(2d,p)
 ****
 34  35 0
 6-311+G(2d,p)
 ****
 1  2  14  15  16  17  18  19  20  21  22  24  25  26 0
 3-21G
 ****
 31  33  36  37  38  39  40  41  42  43  44  45  46 0
 3-21G
 ****


