%nproc=1
%NoSave
%Mem=1900MB
#P OB98/GEN NMR

erre ene a

0 1
  C      362.266     -29.237     238.088
  O      362.911     -30.453     238.441
  P      362.295     -31.301     239.662
  C      363.722     -29.942     241.353
  O      362.416     -30.355     240.950
  C      363.652     -29.138     242.654
  O      362.878     -27.942     242.455
  C      362.991     -29.872     243.813
  O      363.883     -30.764     244.465
  C      362.634     -28.710     244.725
  O      363.798     -28.285     245.455
  C      362.216     -27.631     243.711
  N      357.894     -25.267     245.093
  C      359.159     -25.153     245.538
  N      360.258     -25.825     245.124
  C      359.939     -26.724     244.179
  C      358.678     -26.974     243.650
  C      357.623     -26.191     244.140
  N      356.329     -26.288     243.665
  N      358.747     -27.971     242.696
  C      360.012     -28.300     242.640
  N      360.782     -27.572     243.509
  O      363.405     -32.430     239.919
  O      360.946     -31.890     239.399
  H      363.546     -27.473     245.943
  H      363.001     -33.196     240.363
  H      359.323     -24.417     246.326
  H      360.430     -29.058     241.983
  H      362.549     -26.629     244.014
  H      361.865     -28.959     245.461
  H      362.067     -30.382     243.492
  H      364.676     -28.843     242.923
  H      364.162     -29.314     240.573
  H      355.675     -25.569     243.931
  H      356.176     -26.825     242.818
  H      364.354     -30.832     241.489
  P      363.243     -32.112     245.074
  C      363.042     -31.267     247.521
  O      362.373     -31.645     246.332
  O      364.513     -32.845     245.723
  O      362.546     -32.961     244.063
  H      364.364     -33.805     245.764
  H      362.354     -30.699     248.156
  H      363.917     -30.652     247.316
  H      363.353     -32.169     248.070
  H      362.781     -28.785     237.266
  H      362.277     -28.571     238.925
  H      361.254     -29.439     237.806

 3  4  5  6  7  8  9  10  11  12  22  25  29  30  31  32 0
 6-311+G(2d,p)
 ****
 33  36  37 0
 6-311+G(2d,p)
 ****
 1  2  13  14  15  16  17  18  19  20  21  23  24  26 0
 3-21G
 ****
 27  28  34  35  38  39  40  41  42  43  44  45  46  47  48 0
 3-21G
 ****


