%nproc=1
%NoSave
%Mem=1900MB
#P OB98/GEN NMR

erre ene a

0 1
  C      -49.181     880.958    -332.065
  O      -49.434     880.943    -333.453
  H      -48.425     880.202    -331.842
  H      -50.089     880.711    -331.510
  H      -48.806     881.934    -331.753
  P      -50.543     881.929    -334.063
  C      -48.883     882.803    -335.817
  O      -49.713     883.150    -334.712
  C      -48.619     884.023    -336.701
  O      -49.851     884.425    -337.360
  C      -48.088     885.245    -335.932
  O      -46.968     885.803    -336.623
  C      -49.252     886.222    -335.974
  O      -48.843     887.581    -335.829
  C      -49.888     885.861    -337.318
  N      -51.237     886.391    -337.449
  C      -51.343     887.759    -337.712
  O      -50.325     888.448    -337.828
  N      -52.587     888.326    -337.782
  C      -53.642     887.597    -337.562
  N      -54.844     888.229    -337.618
  C      -53.576     886.156    -337.253
  C      -52.353     885.623    -337.220
  O      -51.611     882.333    -333.104
  O      -51.109     881.165    -335.349
  H      -49.647     888.149    -335.812
  H      -52.001     881.521    -335.564
  H      -54.476     885.592    -337.074
  H      -52.203     884.571    -337.004
  H      -49.281     886.244    -338.155
  H      -49.950     885.995    -335.161
  H      -47.796     885.011    -334.912
  H      -47.928     883.726    -337.502
  H      -54.841     889.221    -337.825
  H      -49.374     882.016    -336.392
  H      -55.725     887.771    -337.442
  H      -47.927     882.431    -335.430
  P      -45.841     886.484    -335.701
  C      -44.173     884.501    -335.827
  O      -44.994     885.311    -335.005
  O      -46.684     887.128    -334.501
  O      -45.027     887.516    -336.422
  H      -46.664     888.102    -334.579
  H      -43.676     883.770    -335.224
  H      -43.446     885.113    -336.318
  H      -44.777     884.008    -336.560

 6  7  8  9  10  11  12  13  14  15  16  26  30  31  32  33  35 0
 6-311+G(2d,p)
 ****
 37  38 0
 6-311+G(2d,p)
 ****
 1  2  3  4  5  17  18  19  20  21  22  23  24  25 0
 3-21G
 ****
 27  28  29  34  36  39  40  41  42  43  44  45  46 0
 3-21G
 ****


