%nproc=1
%NoSave
%Mem=1900MB
#P OB98/GEN NMR

erre ene a

0 1
  C     -655.222      29.232     479.842
  O     -654.191      30.172     480.076
  P     -653.689      31.130     478.894
  C     -652.857      33.106     480.308
  O     -653.843      32.649     479.384
  C     -653.378      34.339     481.058
  O     -654.612      34.015     481.757
  C     -652.426      34.854     482.128
  O     -651.352      35.580     481.550
  C     -653.370      35.698     482.981
  O     -653.577      36.993     482.396
  C     -654.667      34.871     482.920
  N     -656.572      34.872     487.659
  C     -656.366      35.861     486.779
  N     -655.814      35.798     485.542
  C     -655.445      34.536     485.265
  C     -655.559      33.412     486.086
  C     -656.176      33.610     487.333
  N     -656.458      32.585     488.222
  N     -655.035      32.299     485.455
  C     -654.601      32.731     484.293
  N     -654.885      34.056     484.105
  O     -654.274      30.837     477.549
  O     -652.104      30.917     478.876
  H     -654.102      37.511     483.042
  H     -651.828      30.561     478.012
  H     -656.690      36.856     487.087
  H     -654.091      32.130     483.547
  H     -655.551      35.513     482.797
  H     -652.989      35.848     483.998
  H     -652.039      34.018     482.728
  H     -653.597      35.119     480.320
  H     -651.957      33.374     479.747
  H     -657.035      32.824     489.011
  H     -656.462      31.641     487.865
  H     -652.622      32.312     481.013
  P     -649.843      35.107     481.791
  C     -649.016      35.082     479.360
  O     -649.400      34.303     480.471
  O     -649.592      34.410     483.090
  O     -649.000      36.467     481.678
  H     -648.226      36.418     482.276
  H     -649.914      35.460     478.852
  H     -648.451      34.456     478.666
  H     -648.390      35.934     479.668
  H     -655.419      28.688     480.742
  H     -654.918      28.553     479.073
  H     -656.109      29.745     479.534

 3  4  5  6  7  8  9  10  11  12  22  25  29  30  31  32 0
 6-311+G(2d,p)
 ****
 33  36  37 0
 6-311+G(2d,p)
 ****
 1  2  13  14  15  16  17  18  19  20  21  23  24  26 0
 3-21G
 ****
 27  28  34  35  38  39  40  41  42  43  44  45  46  47  48 0
 3-21G
 ****


