%nproc=1
%NoSave
%Mem=1900MB
#P OB98/GEN NMR

erre ene a

0 1
  C      978.201     382.722    1019.420
  O      979.126     383.700    1019.849
  H      978.748     381.900    1018.958
  H      977.519     383.153    1018.681
  H      977.630     382.329    1020.269
  P      978.544     384.896    1020.747
  C      979.643     383.769    1022.819
  O      979.461     384.963    1022.064
  C      981.037     383.739    1023.446
  O      982.049     383.773    1022.412
  C      981.329     384.924    1024.360
  O      980.807     384.728    1025.664
  C      982.852     384.894    1024.371
  O      983.310     383.837    1025.244
  C      983.173     384.564    1022.914
  N      986.537     387.427    1020.428
  C      986.736     386.307    1021.222
  N      988.010     385.904    1021.380
  N      985.756     385.648    1021.808
  C      984.542     386.176    1021.568
  C      984.222     387.268    1020.783
  C      985.292     387.982    1020.146
  O      985.175     388.950    1019.421
  N      982.873     387.496    1020.774
  C      982.370     386.544    1021.545
  N      983.344     385.723    1022.063
  O      977.149     384.312    1021.291
  O      978.349     386.191    1020.036
  H      983.378     384.219    1026.137
  H      976.509     385.040    1021.342
  H      987.315     387.888    1020.007
  H      981.321     386.408    1021.766
  H      984.069     383.943    1022.815
  H      983.291     385.820    1024.742
  H      988.811     386.390    1020.997
  H      980.986     385.876    1023.920
  H      988.178     385.059    1021.937
  H      981.140     382.798    1023.984
  H      979.527     382.908    1022.156
  H      978.869     383.719    1023.593
  P      980.824     385.982    1026.683
  C      978.457     386.835    1025.975
  O      979.271     386.279    1027.016
  O      981.237     387.197    1025.727
  O      981.729     385.837    1027.851
  H      981.631     387.917    1026.268
  H      977.461     386.976    1026.338
  H      978.441     386.167    1025.140
  H      978.862     387.777    1025.670

 6  7  8  9  10  11  12  13  14  15  26  29  33  34 0
 6-311+G(2d,p)
 ****
 36  38  39  40  41 0
 6-311+G(2d,p)
 ****
 1  2  3  4  5  16  17  18  19  20  21  22  23  24  25 0
 3-21G
 ****
 27  28  30  31  32  35  37  42  43  44  45  46  47 0
 3-21G
 ****
 48  49 0
 3-21G
 ****


