%nproc=1
%NoSave
%Mem=1900MB
#P OB98/GEN NMR

erre ene a

0 1
  C      450.666     -22.674     355.335
  O      449.569     -22.488     356.212
  H      451.114     -23.648     355.544
  H      451.418     -21.897     355.500
  H      450.330     -22.656     354.297
  P      448.752     -21.116     356.054
  C      446.692     -22.444     356.923
  O      447.462     -21.249     356.995
  C      445.403     -22.279     357.723
  O      444.624     -21.186     357.182
  C      444.485     -23.494     357.675
  O      444.910     -24.522     358.547
  C      443.154     -22.868     358.082
  O      443.033     -22.761     359.504
  C      443.236     -21.474     357.445
  N      439.456     -18.993     355.054
  C      440.051     -18.794     356.254
  N      441.069     -19.490     356.815
  C      441.479     -20.476     355.986
  C      440.961     -20.799     354.744
  C      439.901     -20.009     354.273
  N      439.271     -20.228     353.071
  N      441.609     -21.902     354.218
  C      442.508     -22.223     355.126
  N      442.462     -21.395     356.209
  O      448.156     -21.222     354.567
  O      449.551     -19.872     356.241
  H      442.686     -23.621     359.812
  H      448.703     -20.697     353.957
  H      439.677     -17.957     356.839
  H      443.199     -23.070     355.055
  H      442.853     -20.687     358.116
  H      442.325     -23.473     357.721
  H      444.407     -23.865     356.646
  H      445.666     -22.029     358.762
  H      447.271     -23.278     357.346
  H      446.469     -22.656     355.872
  H      438.468     -19.662     352.829
  H      439.513     -21.045     352.531
  P      444.550     -26.030     358.147
  C      446.177     -26.839     360.019
  O      444.904     -26.960     359.412
  O      445.674     -26.425     357.065
  O      443.169     -26.226     357.602
  H      445.283     -26.996     356.380
  H      446.248     -27.523     360.839
  H      446.308     -25.839     360.377
  H      446.938     -27.063     359.301

 6  7  8  9  10  11  12  13  14  15  25  28  32  33  34  35 0
 6-311+G(2d,p)
 ****
 36  37  40 0
 6-311+G(2d,p)
 ****
 1  2  3  4  5  16  17  18  19  20  21  22  23  24 0
 3-21G
 ****
 26  27  29  30  31  38  39 41  42  43  44  45  46  47  48 0
 3-21G
 ****


