%nproc=1
%NoSave
%Mem=1900MB
#P OB98/GEN NMR

erre ene a

0 1
  C     -139.866      86.875      45.267
  O     -140.633      87.698      46.129
  H     -140.092      85.828      45.486
  H     -138.801      87.055      45.426
  H     -140.129      87.082      44.222
  P     -140.472      89.282      45.932
  C     -138.543      89.565      47.667
  O     -138.947      89.622      46.305
  C     -137.160      90.203      47.833
  O     -136.756      90.072      49.233
  C     -136.064      89.533      46.987
  O     -135.071      90.523      46.654
  C     -135.464      88.544      47.976
  O     -134.211      88.093      47.531
  C     -135.473      89.403      49.235
  N     -132.384      86.174      51.690
  C     -132.245      86.845      50.526
  N     -133.114      87.694      49.947
  C     -134.214      87.850      50.706
  C     -134.493      87.232      51.917
  C     -133.518      86.347      52.412
  N     -133.665      85.648      53.582
  N     -135.738      87.625      52.380
  C     -136.195      88.466      51.472
  N     -135.303      88.630      50.446
  O     -141.307      89.889      47.158
  O     -140.934      89.820      44.622
  H     -133.621      87.887      48.285
  H     -142.224      90.070      46.880
  H     -131.314      86.672      49.992
  H     -137.149      88.972      51.501
  H     -134.690      90.176      49.219
  H     -136.112      87.664      48.091
  H     -136.443      89.068      46.071
  H     -137.225      91.277      47.623
  H     -138.511      88.513      47.978
  H     -139.271      90.103      48.285
  H     -132.931      85.010      53.854
  H     -134.520      85.741      54.110
  P     -135.223      91.344      45.277
  C     -134.453      89.512      43.583
  O     -135.505      90.341      44.057
  O     -133.713      91.802      45.003
  O     -136.124      92.534      45.338
  H     -133.698      92.747      44.746
  H     -134.810      88.911      42.773
  H     -134.114      88.878      44.375
  H     -133.643      90.123      43.243

 6  7  8  9  10  11  12  13  14  15  25  28  32  33  34  35 0
 6-311+G(2d,p)
 ****
 36  37  40 0
 6-311+G(2d,p)
 ****
 1  2  3  4  5  16  17  18  19  20  21  22  23  24 0
 3-21G
 ****
 26  27  29  30  31  38  39 41  42  43  44  45  46  47  48 0
 3-21G
 ****


