%nproc=1
%NoSave
%Mem=1900MB
#P OB98/GEN NMR

erre ene a

0 1
  C     -324.693      62.899      28.946
  O     -323.864      63.416      29.978
  P     -322.694      62.463      30.532
  C     -322.633      59.984      31.301
  O     -323.428      61.145      31.075
  C     -323.209      59.156      32.440
  O     -323.245      59.942      33.648
  C     -324.641      58.691      32.221
  O     -324.704      57.534      31.396
  C     -325.067      58.363      33.650
  O     -324.588      57.057      34.012
  C     -324.333      59.446      34.460
  N     -326.923      61.631      38.228
  C     -326.153      60.483      38.232
  N     -326.037      59.842      39.416
  N     -325.553      60.007      37.174
  C     -325.730      60.774      36.068
  C     -326.468      61.932      35.941
  C     -327.169      62.420      37.109
  O     -327.919      63.394      37.150
  N     -326.392      62.431      34.664
  C     -325.577      61.607      34.035
  N     -325.174      60.567      34.836
  O     -322.228      63.205      31.873
  O     -321.554      62.247      29.594
  H     -324.876      56.440      33.314
  H     -321.301      62.969      32.077
  H     -327.343      61.963      39.076
  H     -325.261      61.720      33.009
  H     -323.888      59.024      35.373
  H     -326.150      58.357      33.783
  H     -326.365      60.229      40.290
  H     -325.267      59.496      31.832
  H     -325.447      59.017      39.446
  H     -322.545      58.298      32.610
  H     -321.616      60.288      31.561
  H     -322.597      59.398      30.377
  P     -325.886      57.490      30.312
  C     -328.477      57.396      30.496
  O     -327.226      57.291      31.156
  O     -325.666      56.075      29.591
  O     -325.874      58.626      29.346
  H     -326.032      56.098      28.683
  H     -328.427      56.993      29.480
  H     -328.775      58.451      30.453
  H     -329.224      56.837      31.059
  H     -325.423      63.632      28.674
  H     -325.187      62.016      29.294
  H     -324.093      62.660      28.093

 3  4  5  6  7  8  9  10  11  12  23  26  30  31  33  0
 6-311+G(2d,p)
 ****
 35  36  37  38 0
 6-311+G(2d,p)
 ****
 1  2  13  14  15  16  17  18  19  20  21  22  24  25  27  28  29 0
 3-21G
 ****
 32  34  39  40  41  42  43  44  45  46  47  48  49 0
 3-21G
 ****


