%nproc=1
%NoSave
%Mem=1900MB
#P OB98/GEN NMR

erre ene a

0 1
  C      387.795     437.600     346.699
  O      387.411     437.721     348.055
  H      388.753     438.108     346.558
  H      387.052     438.073     346.051
  H      387.915     436.547     346.420
  P      386.114     436.929     348.564
  C      384.945     439.107     349.312
  O      384.882     437.951     348.482
  C      384.370     440.310     348.563
  O      385.224     440.660     347.448
  C      382.988     440.073     347.973
  O      381.987     440.120     348.967
  C      382.920     441.184     346.938
  O      382.557     442.431     347.552
  C      384.374     441.223     346.417
  N      384.544     440.515     345.147
  C      384.569     441.301     344.000
  O      384.419     442.523     344.016
  N      384.733     440.627     342.820
  C      384.763     439.273     342.670
  O      384.826     438.712     341.576
  C      384.714     438.488     343.912
  C      384.608     439.138     345.074
  O      386.263     436.217     349.869
  O      385.806     435.902     347.371
  H      381.600     442.383     347.734
  H      386.083     435.003     347.637
  H      384.736     441.178     341.974
  H      384.752     437.410     343.837
  H      384.564     438.578     346.004
  H      384.704     442.262     346.278
  H      382.180     440.984     346.165
  H      382.967     439.102     347.450
  H      384.353     441.168     349.253
  H      385.995     439.301     349.567
  H      384.380     438.918     350.233
  P      381.233     438.778     349.411
  C      378.942     439.824     348.891
  O      379.826     438.726     348.647
  O      381.164     438.547     350.883
  O      382.070     437.616     348.695
  H      382.443     437.018     349.376
  H      378.039     439.686     348.334
  H      379.413     440.735     348.587
  H      378.713     439.872     349.935

 6  7  8  9  10  11  12  13  14  15  16  26  31  32  33  34  35 0
 6-311+G(2d,p)
 ****
 36  37 0
 6-311+G(2d,p)
 ****
 1  2  3  4  5  17  18  19  20  21  22  23  24  25 0
 3-21G
 ****
 27  28  29  30  38  39  40  41  42  43  44  45 0
 3-21G
 ****


