%nproc=1
%NoSave
%Mem=1900MB
#P OB98/GEN NMR

erre ene a

0 1
  C       77.649      98.459     -69.846
  O       77.849      98.069     -71.187
  P       76.984      98.702     -72.375
  C       78.709     100.599     -72.649
  O       77.342     100.271     -72.423
  C       78.847     101.459     -73.914
  O       77.916     102.582     -73.818
  C       80.268     102.036     -74.093
  O       80.855     101.775     -75.372
  C       80.084     103.503     -73.745
  O       81.090     104.351     -74.262
  C       78.648     103.756     -74.225
  N       78.081     104.986     -73.674
  C       78.599     106.190     -74.140
  O       79.486     106.283     -74.984
  N       78.104     107.322     -73.553
  C       77.248     107.368     -72.493
  O       76.924     108.419     -71.953
  C       76.767     106.061     -72.016
  C       77.175     104.947     -72.631
  O       75.524      98.408     -72.331
  O       77.719      98.155     -73.691
  H       81.001     104.364     -75.234
  H       78.654      98.410     -73.772
  H       78.471     108.203     -73.882
  H       76.094     106.066     -71.166
  H       76.835     103.969     -72.301
  H       78.598     103.813     -75.314
  H       80.121     103.593     -72.650
  H       80.969     101.578     -73.383
  H       78.562     100.839     -74.771
  H       79.276      99.673     -72.782
  H       79.119     101.114     -71.772
  P       82.416     101.548     -75.638
  C       82.143      98.971     -75.408
  O       82.831     100.136     -75.004
  O       83.300     102.693     -75.264
  O       82.489     101.274     -77.215
  H       83.354     101.569     -77.559
  H       82.161      98.248     -74.586
  H       82.653      98.532     -76.272
  H       81.102      99.185     -75.666
  H       78.324      97.921     -69.214
  H       76.641      98.243     -69.558
  H       77.830      99.509     -69.749

 3  4  5  6  7  8  9  10  11  12  13  23  28  29  30  31  32 0
 6-311+G(2d,p)
 ****
 33  34 0
 6-311+G(2d,p)
 ****
 1  2  14  15  16  17  18  19  20  21  22  24  25  26  27 0
 3-21G
 ****
 35  36  37  38  39  40  41  42  43  44  45 0
 3-21G
 ****


