%nproc=1
%NoSave
%Mem=1900MB
#P OB98/GEN NMR

erre ene a

0 1
  C      624.193    -369.151    -189.667
  O      623.331    -369.281    -190.782
  P      623.165    -370.750    -191.410
  C      620.627    -370.740    -192.004
  O      621.978    -370.640    -192.480
  C      619.648    -370.640    -193.175
  O      619.692    -369.319    -193.741
  C      619.956    -371.592    -194.320
  O      619.538    -372.902    -194.005
  C      619.163    -370.952    -195.453
  O      617.800    -371.404    -195.459
  C      619.250    -369.445    -195.119
  N      620.131    -368.714    -196.020
  C      619.608    -368.474    -197.306
  O      618.492    -368.899    -197.613
  N      620.401    -367.805    -198.203
  C      621.587    -367.420    -197.876
  N      622.322    -366.748    -198.809
  C      622.172    -367.656    -196.538
  C      621.393    -368.318    -195.666
  O      622.518    -371.589    -190.213
  O      624.436    -371.366    -191.913
  H      617.405    -371.044    -196.291
  H      622.739    -372.537    -190.288
  H      623.159    -367.317    -196.304
  H      621.737    -368.537    -194.669
  H      618.260    -368.991    -195.162
  H      619.587    -371.203    -196.439
  H      621.025    -371.584    -194.549
  H      618.630    -370.820    -192.786
  H      621.899    -366.597    -199.713
  H      620.437    -369.910    -191.314
  H      623.245    -366.379    -198.632
  H      620.508    -371.686    -191.469
  P      620.108    -374.103    -194.892
  C      620.398    -375.702    -192.899
  O      619.694    -375.437    -194.101
  O      621.692    -374.022    -194.602
  O      619.804    -374.064    -196.350
  H      622.161    -374.643    -195.177
  H      619.925    -376.549    -192.392
  H      620.386    -374.832    -192.239
  H      621.444    -375.978    -193.134
  H      624.213    -368.130    -189.349
  H      625.180    -369.459    -189.942
  H      623.837    -369.766    -188.867

 3  4  5  6  7  8  9  10  11  12  13  21  23  27  28  29  30  32 0
 6-311+G(2d,p)
 ****
 34  35 0
 6-311+G(2d,p)
 ****
 1  2  14  15  16  17  18  19  20  22  24  25  26 0
 3-21G
 ****
 31  33  36  37  38  39  40  41  42  43  44  45  46 0
 3-21G
 ****


