%nproc=1
%NoSave
%Mem=1900MB
#P OB98/GEN NMR

erre ene a

0 1
  C     -317.065    -319.010     412.292
  O     -316.705    -319.886     413.344
  H     -316.153    -318.597     411.854
  H     -317.679    -318.191     412.678
  H     -317.612    -319.561     411.524
  P     -317.907    -320.576     414.152
  C     -317.340    -322.780     412.938
  O     -318.346    -321.814     413.223
  C     -317.895    -323.871     412.017
  O     -318.307    -323.254     410.771
  C     -316.869    -324.955     411.679
  O     -317.525    -326.228     411.630
  C     -316.396    -324.576     410.284
  O     -315.905    -325.698     409.555
  C     -317.651    -323.936     409.695
  N     -316.509    -323.562     404.737
  C     -316.919    -324.601     405.492
  N     -317.224    -324.610     406.811
  C     -317.097    -323.374     407.331
  C     -316.694    -322.225     406.685
  C     -316.373    -322.349     405.322
  N     -315.927    -321.296     404.548
  N     -316.657    -321.160     407.571
  C     -317.046    -321.662     408.725
  N     -317.317    -323.007     408.633
  O     -319.015    -319.666     414.566
  O     -317.126    -321.299     415.346
  H     -315.900    -325.464     408.604
  H     -316.323    -321.752     415.025
  H     -317.016    -325.550     404.975
  H     -317.145    -321.109     409.650
  H     -318.345    -324.677     409.273
  H     -315.584    -323.840     410.361
  H     -316.046    -324.996     412.393
  H     -318.793    -324.302     412.475
  H     -316.978    -323.235     413.869
  H     -315.740    -321.474     403.572
  H     -315.845    -320.383     404.966
  H     -316.502    -322.265     412.456
  P     -317.589    -327.100     412.967
  C     -320.054    -326.553     413.502
  O     -318.701    -326.477     413.947
  O     -316.278    -327.415     413.611
  O     -318.304    -328.449     412.463
  H     -317.898    -329.210     412.928
  H     -320.696    -326.109     414.234
  H     -320.327    -327.578     413.364
  H     -320.154    -326.029     412.575

 6  7  8  9  10  11  12  13  14  15  25  28  32  33  34  35 0
 6-311+G(2d,p)
 ****
 36  39  40 0
 6-311+G(2d,p)
 ****
 1  2  3  4  5  16  17  18  19  20  21  22  23  24 0
 3-21G
 ****
 26  27  29  30  31  37  38  41  42  43  44  45  46  47 0
 3-21G
 ****
 48 0
 3-21G
 ****


