%nproc=1
%NoSave
%Mem=1900MB
#P OB98/GEN NMR

erre ene a

0 1
  C       59.410    -135.763    -250.751
  O       60.686    -136.266    -251.150
  P       60.757    -137.622    -252.003
  C       62.187    -136.663    -253.921
  O       62.110    -137.615    -252.869
  C       63.629    -136.167    -254.101
  O       63.962    -135.183    -253.080
  C       64.661    -137.298    -253.989
  O       65.783    -137.043    -254.849
  C       65.139    -137.176    -252.553
  O       66.411    -137.796    -252.367
  C       65.129    -135.658    -252.379
  N       67.894    -133.902    -248.441
  C       68.217    -134.136    -249.732
  N       67.422    -134.581    -250.729
  C       66.170    -134.777    -250.288
  C       65.690    -134.574    -249.002
  C       66.618    -134.122    -248.047
  N       66.294    -133.912    -246.726
  N       64.347    -134.887    -248.923
  C       64.036    -135.318    -250.128
  N       65.091    -135.240    -250.995
  O       59.523    -137.972    -252.764
  O       61.072    -138.726    -250.883
  H       66.688    -137.623    -251.450
  H       60.535    -139.524    -251.063
  H       69.253    -133.943    -249.998
  H       63.071    -135.708    -250.420
  H       66.008    -135.190    -252.844
  H       64.421    -137.656    -251.880
  H       64.266    -138.297    -254.209
  H       63.713    -135.664    -255.072
  H       61.527    -135.822    -253.705
  H       67.049    -133.701    -246.090
  H       65.391    -134.214    -246.390
  H       61.804    -137.117    -254.843
  P       65.806    -137.861    -256.238
  C       66.844    -135.770    -257.415
  O       66.920    -137.149    -257.141
  O       64.456    -138.020    -256.856
  O       66.477    -139.246    -255.796
  H       67.303    -139.155    -255.290
  H       67.755    -135.459    -257.931
  H       66.755    -135.192    -256.489
  H       65.984    -135.561    -258.062
  H       59.541    -134.859    -250.194
  H       58.915    -136.489    -250.141
  H       58.818    -135.564    -251.620

 3  4  5  6  7  8  9  10  11  12  22  25  29  30  31  32 0
 6-311+G(2d,p)
 ****
 33  36  37 0
 6-311+G(2d,p)
 ****
 1  2  13  14  15  16  17  18  19  20  21  23  24  26 0
 3-21G
 ****
 27  28  34  35  38  39  40  41  42  43  44  45  46  47  48 0
 3-21G
 ****


