%nproc=1
%NoSave
%Mem=1900MB
#P OB98/GEN NMR

erre ene a

0 1
  C     -415.499     -15.715     442.179
  O     -414.762     -14.623     441.660
  H     -414.801     -16.497     442.487
  H     -416.167     -16.131     441.419
  H     -416.082     -15.399     443.048
  P     -415.570     -13.408     440.993
  C     -414.689     -14.121     438.665
  O     -415.829     -13.849     439.475
  C     -414.895     -15.415     437.885
  O     -415.521     -16.409     438.722
  C     -415.816     -15.252     436.680
  O     -415.145     -14.608     435.618
  C     -416.223     -16.690     436.432
  O     -415.201     -17.401     435.719
  C     -416.361     -17.226     437.876
  N     -417.743     -17.219     438.352
  C     -418.477     -18.389     438.118
  O     -417.956     -19.349     437.549
  N     -419.791     -18.420     438.514
  C     -420.320     -17.395     439.101
  N     -421.625     -17.496     439.471
  C     -419.578     -16.152     439.381
  C     -418.308     -16.131     438.977
  O     -414.983     -12.041     441.150
  O     -417.024     -13.518     441.655
  H     -415.490     -18.336     435.702
  H     -417.066     -12.994     442.479
  H     -420.055     -15.322     439.881
  H     -417.689     -15.254     439.141
  H     -415.979     -18.251     437.944
  H     -417.137     -16.751     435.848
  H     -416.714     -14.689     436.969
  H     -413.914     -15.796     437.580
  H     -422.100     -18.366     439.250
  H     -413.828     -14.219     439.339
  H     -422.113     -16.798     440.014
  H     -414.495     -13.291     437.977
  P     -415.552     -13.121     435.174
  C     -415.845     -14.016     432.772
  O     -416.442     -13.298     433.851
  O     -414.410     -12.159     435.060
  O     -416.630     -12.694     436.279
  H     -416.200     -12.493     437.144
  H     -416.532     -14.066     431.953
  H     -415.601     -15.007     433.094
  H     -414.954     -13.513     432.459

 6  7  8  9  10  11  12  13  14  15  16  26  30  31  32  33  35 0
 6-311+G(2d,p)
 ****
 37  38 0
 6-311+G(2d,p)
 ****
 1  2  3  4  5  17  18  19  20  21  22  23  24  25 0
 3-21G
 ****
 27  28  29  34  36  39  40  41  42  43  44  45  46 0
 3-21G
 ****


