%nproc=1
%NoSave
%Mem=1900MB
#P OB98/GEN NMR

erre ene a

0 1
  C      -85.382     102.487      48.635
  O      -84.202     102.442      49.411
  H      -85.895     101.526      48.722
  H      -85.139     102.665      47.585
  H      -86.042     103.277      49.003
  P      -83.239     103.727      49.326
  C      -81.235     102.307      48.448
  O      -82.182     103.331      48.182
  C      -81.095     101.395      47.233
  O      -82.328     100.684      46.986
  C      -80.782     102.123      45.927
  O      -79.424     102.514      45.812
  C      -81.144     101.035      44.931
  O      -80.114     100.028      44.920
  C      -82.450     100.494      45.549
  N      -83.648     101.170      45.041
  C      -84.132     100.738      43.800
  O      -83.567      99.838      43.182
  N      -85.234     101.367      43.267
  C      -85.815     102.324      43.923
  N      -86.900     102.907      43.343
  C      -85.348     102.799      45.236
  C      -84.273     102.187      45.731
  O      -82.365     103.623      50.663
  O      -83.917     105.041      49.129
  H      -80.419      99.322      44.322
  H      -81.634     104.290      50.639
  H      -85.857     103.610      45.739
  H      -83.872     102.482      46.694
  H      -82.555      99.417      45.367
  H      -81.239     101.401      43.908
  H      -81.450     102.979      45.775
  H      -80.327     100.646      47.464
  H      -87.160     102.598      42.415
  H      -81.584     101.731      49.312
  H      -87.326     103.752      43.700
  H      -80.261     102.748      48.684
  P      -79.121     104.085      45.688
  C      -77.320     103.686      43.848
  O      -78.535     104.331      44.217
  O      -77.846     104.284      46.633
  O      -80.256     104.980      46.081
  H      -77.869     105.159      47.067
  H      -77.066     103.951      42.843
  H      -77.444     102.625      43.917
  H      -76.537     103.997      44.507

 6  7  8  9  10  11  12  13  14  15  16  26  30  31  32  33  35 0
 6-311+G(2d,p)
 ****
 37  38 0
 6-311+G(2d,p)
 ****
 1  2  3  4  5  17  18  19  20  21  22  23  24  25 0
 3-21G
 ****
 27  28  29  34  36  39  40  41  42  43  44  45  46 0
 3-21G
 ****


