%nproc=1
%NoSave
%Mem=1900MB
#P OB98/GEN NMR

erre ene a

0 1
  C     -111.825     -48.555     107.428
  O     -110.763     -49.478     107.635
  P     -109.351     -48.909     108.138
  C     -109.938     -49.475     110.601
  O     -109.538     -48.474     109.675
  C     -108.728     -50.088     111.306
  O     -107.772     -49.034     111.605
  C     -109.051     -50.794     112.628
  O     -108.137     -51.891     112.760
  C     -108.717     -49.742     113.669
  O     -108.488     -50.310     114.956
  C     -107.494     -49.094     113.022
  N     -105.828     -46.408     117.041
  C     -105.933     -47.737     116.830
  N     -106.386     -48.378     115.732
  C     -106.759     -47.496     114.787
  C     -106.742     -46.113     114.874
  C     -106.246     -45.562     116.068
  N     -106.129     -44.208     116.282
  N     -107.229     -45.549     113.712
  C     -107.533     -46.573     112.938
  N     -107.244     -47.767     113.537
  O     -109.240     -47.512     107.365
  O     -108.176     -49.781     107.856
  H     -107.948     -49.685     115.474
  H     -108.528     -47.558     106.697
  H     -105.600     -48.370     117.647
  H     -107.963     -46.502     111.949
  H     -106.585     -49.691     113.164
  H     -109.547     -49.030     113.757
  H     -110.084     -51.152     112.704
  H     -108.237     -50.781     110.612
  H     -110.462     -50.266     110.056
  H     -105.638     -43.894     117.104
  H     -106.256     -43.579     115.497
  H     -110.625     -49.043     111.334
  P     -108.621     -53.139     113.641
  C     -108.747     -54.999     111.840
  O     -109.454     -54.097     112.666
  O     -109.739     -52.504     114.599
  O     -107.531     -53.790     114.426
  H     -109.791     -53.011     115.431
  H     -109.343     -55.907     111.714
  H     -107.777     -55.271     112.268
  H     -108.586     -54.540     110.862
  H     -112.695     -49.081     107.096
  H     -111.536     -47.839     106.687
  H     -112.042     -48.050     108.346

 3  4  5  6  7  8  9  10  11  12  22  25  29  30  31  32 0
 6-311+G(2d,p)
 ****
 33  36  37 0
 6-311+G(2d,p)
 ****
 1  2  13  14  15  16  17  18  19  20  21  23  24  26 0
 3-21G
 ****
 27  28  34  35  38  39  40  41  42  43  44  45  46  47  48 0
 3-21G
 ****


