%nproc=1
%NoSave
%Mem=1900MB
#P OB98/GEN NMR

erre ene a

0 1
  C      205.816     176.658    -316.802
  O      206.862     175.882    -316.252
  H      205.318     176.075    -317.581
  H      206.224     177.568    -317.250
  H      205.084     176.915    -316.030
  P      207.610     176.487    -314.965
  C      207.712     175.286    -312.633
  O      207.944     175.228    -314.029
  C      207.286     173.915    -312.101
  O      205.935     173.641    -312.549
  C      208.179     172.767    -312.579
  O      208.281     171.806    -311.525
  C      207.389     172.166    -313.729
  O      207.751     170.812    -313.981
  C      205.946     172.379    -313.245
  N      204.981     172.361    -314.343
  C      204.675     171.111    -314.891
  O      205.218     170.094    -314.458
  N      203.795     171.044    -315.941
  C      203.313     172.136    -316.448
  N      202.467     172.003    -317.505
  C      203.643     173.478    -315.932
  C      204.466     173.517    -314.885
  O      206.408     177.220    -314.204
  O      208.769     177.371    -315.284
  H      207.615     170.294    -313.157
  H      205.595     176.689    -314.163
  H      203.224     174.361    -316.395
  H      204.756     174.459    -314.436
  H      205.663     171.598    -312.527
  H      207.569     172.738    -314.648
  H      209.176     173.100    -312.875
  H      207.256     173.960    -311.006
  H      202.286     171.065    -317.841
  H      206.932     176.019    -312.406
  H      202.077     172.783    -318.011
  H      208.637     175.611    -312.147
  P      209.706     171.524    -310.853
  C      210.095     170.678    -308.438
  O      209.545     170.399    -309.722
  O      210.481     172.730    -310.445
  O      210.490     170.727    -312.013
  H      211.410     171.055    -312.028
  H      209.917     169.849    -307.786
  H      209.632     171.554    -308.035
  H      211.149     170.841    -308.529

 6  7  8  9  10  11  12  13  14  15  16  26  30  31  32  33  35 0
 6-311+G(2d,p)
 ****
 37  38 0
 6-311+G(2d,p)
 ****
 1  2  3  4  5  17  18  19  20  21  22  23  24  25 0
 3-21G
 ****
 27  28  29  34  36  39  40  41  42  43  44  45  46 0
 3-21G
 ****


