%nproc=1
%NoSave
%Mem=1900MB
#P OB98/GEN NMR

erre ene a

0 1
  C       10.230    -222.582     -86.371
  O       11.173    -223.550     -86.785
  H        9.978    -222.764     -85.322
  H        9.321    -222.671     -86.970
  H       10.642    -221.575     -86.465
  P       11.831    -223.339     -88.234
  C       11.226    -225.768     -88.920
  O       12.249    -224.797     -88.761
  C       11.772    -226.994     -89.648
  O       12.324    -226.614     -90.928
  C       12.886    -227.720     -88.902
  O       12.372    -228.606     -87.916
  C       13.532    -228.486     -90.045
  O       12.727    -229.634     -90.379
  C       13.486    -227.455     -91.179
  N       18.016    -226.883     -93.378
  C       17.079    -227.888     -93.525
  N       17.398    -228.890     -94.371
  N       15.933    -227.914     -92.895
  C       15.753    -226.853     -92.072
  C       16.605    -225.795     -91.844
  C       17.864    -225.775     -92.553
  O       18.719    -224.898     -92.478
  N       16.071    -224.906     -90.950
  C       14.908    -225.432     -90.621
  N       14.670    -226.618     -91.270
  O       13.240    -222.649     -87.904
  O       11.033    -222.513     -89.185
  H       12.599    -230.136     -89.553
  H       13.448    -222.005     -88.608
  H       18.887    -226.918     -93.879
  H       14.205    -224.996     -89.925
  H       13.347    -227.922     -92.161
  H       14.528    -228.854     -89.794
  H       18.284    -228.956     -94.849
  H       13.611    -227.017     -88.477
  H       16.715    -229.620     -94.521
  H       10.931    -227.673     -89.842
  H       10.407    -225.336     -89.504
  H       10.847    -226.053     -87.933
  P       12.369    -228.101     -86.391
  C       12.107    -230.661     -86.030
  O       11.864    -229.353     -85.524
  O       11.124    -227.095     -86.348
  O       13.632    -227.453     -85.939
  H       11.233    -226.462     -85.612
  H       11.716    -231.386     -85.347
  H       13.161    -230.810     -86.143
  H       11.627    -230.771     -86.980

 6  7  8  9  10  11  12  13  14  15  26  29  33  34 0
 6-311+G(2d,p)
 ****
 36  38  39  40  41 0
 6-311+G(2d,p)
 ****
 1  2  3  4  5  16  17  18  19  20  21  22  23  24  25 0
 3-21G
 ****
 27  28  30  31  32  35  37  42  43  44  45  46  47 0
 3-21G
 ****
 48  49 0
 3-21G
 ****


