%nproc=1
%NoSave
%Mem=1900MB
#P OB98/GEN NMR

erre ene a

0 1
  C       -4.547     -73.472    -603.551
  O       -4.447     -72.270    -602.776
  P       -3.466     -71.136    -603.359
  C       -1.254     -72.006    -602.293
  O       -1.995     -71.772    -603.489
  C       -0.159     -73.052    -602.500
  O        0.729     -73.048    -601.345
  C       -0.657     -74.490    -602.671
  O        0.177     -75.159    -603.626
  C       -0.402     -75.124    -601.319
  O       -0.303     -76.541    -601.397
  C        0.900     -74.412    -600.928
  N        3.953     -76.375    -597.401
  C        4.045     -76.431    -598.780
  N        5.084     -77.125    -599.293
  N        3.194     -75.855    -599.590
  C        2.218     -75.168    -598.939
  C        2.025     -75.035    -597.579
  C        2.948     -75.712    -596.701
  O        2.889     -75.746    -595.476
  N        0.926     -74.264    -597.305
  C        0.443     -73.935    -598.496
  N        1.197     -74.468    -599.518
  O       -3.333     -70.106    -602.133
  O       -3.980     -70.459    -604.581
  H        0.387     -76.749    -602.061
  H       -3.601     -69.209    -602.421
  H        4.620     -76.853    -596.834
  H       -0.441     -73.347    -598.675
  H        1.753     -74.834    -601.471
  H       -1.224     -74.866    -600.636
  H        5.820     -77.537    -598.730
  H       -1.705     -74.568    -602.978
  H        5.200     -77.137    -600.290
  H        0.450     -72.747    -603.367
  H       -1.935     -72.344    -601.509
  H       -0.818     -71.056    -601.965
  P       -0.336     -75.171    -605.147
  C       -2.346     -76.773    -604.710
  O       -1.915     -75.477    -605.069
  O        0.275     -76.530    -605.736
  O        0.056     -73.978    -605.948
  H        0.398     -76.455    -606.700
  H       -1.532     -77.396    -604.323
  H       -2.782     -77.263    -605.588
  H       -3.119     -76.687    -603.932
  H       -5.222     -74.150    -603.072
  H       -3.582     -73.926    -603.631
  H       -4.912     -73.237    -604.529

 3  4  5  6  7  8  9  10  11  12  23  26  30  31  33  0
 6-311+G(2d,p)
 ****
 35  36  37  38 0
 6-311+G(2d,p)
 ****
 1  2  13  14  15  16  17  18  19  20  21  22  24  25  27  28  29 0
 3-21G
 ****
 32  34  39  40  41  42  43  44  45  46  47  48  49 0
 3-21G
 ****


