%nproc=1
%NoSave
%Mem=1900MB
#P OB98/GEN NMR

erre ene a

0 1
  C     -360.331     138.892    -366.195
  O     -360.683     137.510    -366.139
  P     -360.499     136.752    -364.735
  C     -358.593     135.458    -363.544
  O     -358.995     136.178    -364.693
  C     -357.312     134.663    -363.802
  O     -357.629     133.496    -364.630
  C     -356.214     135.444    -364.543
  O     -354.950     134.969    -364.072
  C     -356.391     135.012    -365.991
  O     -355.225     135.236    -366.768
  C     -356.776     133.554    -365.796
  N     -356.276     132.052    -370.663
  C     -355.378     132.529    -369.783
  N     -355.597     132.902    -368.497
  C     -356.877     132.741    -368.156
  C     -357.913     132.302    -368.961
  C     -357.586     131.937    -370.278
  N     -358.490     131.440    -371.181
  N     -359.113     132.304    -368.269
  C     -358.800     132.739    -367.058
  N     -357.459     133.002    -366.943
  O     -361.394     135.437    -364.928
  O     -360.923     137.520    -363.520
  H     -355.452     135.117    -367.718
  H     -362.185     135.477    -364.350
  H     -354.364     132.617    -370.145
  H     -359.508     132.890    -366.246
  H     -355.896     132.918    -365.595
  H     -357.222     135.580    -366.446
  H     -356.283     136.541    -364.411
  H     -356.930     134.282    -362.846
  H     -359.390     134.752    -363.275
  H     -358.142     131.060    -372.055
  H     -359.406     131.170    -370.850
  H     -358.454     136.144    -362.705
  P     -353.724     136.011    -364.076
  C     -352.021     136.842    -365.849
  O     -353.116     136.003    -365.558
  O     -352.602     135.264    -363.197
  O     -354.062     137.362    -363.509
  H     -352.013     135.926    -362.781
  H     -351.389     136.352    -366.599
  H     -351.418     137.046    -364.944
  H     -352.377     137.781    -366.262
  H     -360.503     139.264    -367.183
  H     -359.297     139.007    -365.946
  H     -360.929     139.441    -365.498

 3  4  5  6  7  8  9  10  11  12  22  25  29  30  31  32 0
 6-311+G(2d,p)
 ****
 33  36  37 0
 6-311+G(2d,p)
 ****
 1  2  13  14  15  16  17  18  19  20  21  23  24  26 0
 3-21G
 ****
 27  28  34  35  38  39  40  41  42  43  44  45  46  47  48 0
 3-21G
 ****


