%nproc=1
%NoSave
%Mem=1900MB
#P OB98/GEN NMR

erre ene a

0 1
  C      -80.294    -740.479     166.423
  O      -79.335    -741.468     166.032
  P      -78.302    -741.973     167.153
  C      -79.222    -744.403     167.277
  O      -78.988    -743.179     167.954
  C      -80.018    -745.364     168.160
  O      -81.131    -744.716     168.805
  C      -80.631    -746.525     167.394
  O      -79.643    -747.488     167.052
  C      -81.667    -747.014     168.389
  O      -81.036    -747.825     169.414
  C      -82.166    -745.706     169.016
  N      -87.167    -746.653     168.519
  C      -86.181    -747.326     169.177
  N      -84.881    -747.006     169.242
  C      -84.624    -745.867     168.584
  C      -85.518    -745.090     167.871
  C      -86.848    -745.519     167.856
  N      -87.852    -744.857     167.176
  N      -84.876    -743.990     167.302
  C      -83.617    -744.118     167.646
  N      -83.414    -745.229     168.418
  O      -78.298    -740.762     168.203
  O      -76.927    -742.255     166.621
  H      -80.333    -747.265     169.826
  H      -77.458    -740.279     168.159
  H      -86.496    -748.223     169.701
  H      -82.816    -743.456     167.348
  H      -82.324    -745.789     170.096
  H      -82.443    -747.626     167.928
  H      -81.128    -746.167     166.486
  H      -79.336    -745.746     168.941
  H      -78.268    -744.865     166.987
  H      -88.777    -745.293     167.144
  H      -87.611    -744.064     166.594
  H      -79.769    -744.188     166.340
  P      -78.776    -747.249     165.714
  C      -76.561    -746.852     166.967
  O      -77.593    -746.253     166.192
  O      -79.738    -746.258     164.893
  O      -78.352    -748.488     165.012
  H      -80.104    -745.550     165.452
  H      -75.814    -746.082     167.190
  H      -76.065    -747.640     166.398
  H      -76.968    -747.247     167.915
  H      -80.915    -740.234     165.587
  H      -79.784    -739.600     166.758
  H      -80.900    -740.864     167.217

 3  4  5  6  7  8  9  10  11  12  22  25  29  30  31  32 0
 6-311+G(2d,p)
 ****
 33  36  37 0
 6-311+G(2d,p)
 ****
 1  2  13  14  15  16  17  18  19  20  21  23  24  26 0
 3-21G
 ****
 27  28  34  35  38  39  40  41  42  43  44  45  46  47  48 0
 3-21G
 ****


