%nproc=1
%NoSave
%Mem=1900MB
#P OB98/GEN NMR

erre ene a

0 1
  C     -145.190     366.561     -85.670
  O     -146.011     365.845     -84.770
  H     -145.758     367.407     -86.065
  H     -144.883     365.921     -86.501
  H     -144.307     366.944     -85.143
  P     -145.369     364.536     -84.099
  C     -145.979     363.184     -86.210
  O     -144.936     363.622     -85.350
  C     -145.446     362.184     -87.235
  O     -145.106     360.956     -86.548
  C     -146.456     361.839     -88.338
  O     -145.770     361.701     -89.578
  C     -147.010     360.492     -87.903
  O     -147.503     359.729     -89.000
  C     -145.797     359.875     -87.201
  N     -146.696     354.897     -86.517
  C     -146.182     355.588     -87.559
  N     -145.964     356.923     -87.648
  C     -146.289     357.535     -86.500
  C     -146.833     356.966     -85.357
  C     -147.040     355.577     -85.398
  N     -147.588     354.869     -84.349
  N     -147.067     357.935     -84.401
  C     -146.668     359.064     -84.950
  N     -146.206     358.879     -86.223
  O     -146.213     363.859     -83.075
  O     -143.967     365.094     -83.577
  H     -147.633     358.804     -88.700
  H     -143.537     365.664     -84.242
  H     -145.921     355.001     -88.435
  H     -146.707     360.040     -84.478
  H     -145.108     359.385     -87.895
  H     -147.833     360.648     -87.195
  H     -147.244     362.591     -88.431
  H     -144.513     362.581     -87.662
  H     -146.426     364.041     -86.727
  H     -147.694     353.868     -84.459
  H     -147.836     355.348     -83.501
  H     -146.756     362.716     -85.590
  P     -145.843     362.906     -90.631
  C     -148.106     362.031     -91.529
  O     -147.380     363.151     -91.022
  O     -144.895     362.828     -91.788
  O     -145.516     364.188     -89.716
  H     -144.977     364.814     -90.230
  H     -149.110     362.327     -91.749
  H     -148.116     361.251     -90.796
  H     -147.635     361.675     -92.422

 6  7  8  9  10  11  12  13  14  15  25  28  32  33  34  35 0
 6-311+G(2d,p)
 ****
 36  39  40 0
 6-311+G(2d,p)
 ****
 1  2  3  4  5  16  17  18  19  20  21  22  23  24 0
 3-21G
 ****
 26  27  29  30  31  37  38  41  42  43  44  45  46  47 0
 3-21G
 ****
 48 0
 3-21G
 ****


