%nproc=1
%NoSave
%Mem=1900MB
#P OB98/GEN NMR

erre ene a

0 1
  C       76.074    -218.275     250.211
  O       75.482    -218.621     248.956
  P       75.884    -217.697     247.705
  C       76.598    -218.074     245.239
  O       76.085    -218.650     246.430
  C       77.634    -218.997     244.593
  O       78.915    -218.930     245.248
  C       77.230    -220.467     244.615
  O       76.302    -220.733     243.581
  C       78.571    -221.161     244.412
  O       78.914    -221.237     243.012
  C       79.548    -220.230     245.154
  N       82.577    -223.338     247.774
  C       82.353    -223.260     246.412
  N       83.056    -224.114     245.639
  N       81.519    -222.419     245.861
  C       80.886    -221.622     246.759
  C       81.045    -221.589     248.124
  C       81.971    -222.528     248.724
  O       82.221    -222.620     249.920
  N       80.276    -220.603     248.692
  C       79.565    -220.132     247.685
  N       79.944    -220.672     246.480
  O       77.368    -217.215     248.065
  O       74.965    -216.540     247.500
  H       79.876    -221.366     242.928
  H       77.363    -216.262     248.277
  H       83.226    -224.012     248.147
  H       78.789    -219.387     247.769
  H       80.478    -220.094     244.590
  H       78.559    -222.188     244.783
  H       83.717    -224.786     245.994
  H       76.818    -220.729     245.600
  H       82.912    -224.069     244.636
  H       77.767    -218.666     243.553
  H       77.053    -217.105     245.456
  H       75.766    -217.884     244.554
  P       74.764    -220.945     243.986
  C       72.512    -220.337     242.850
  O       73.879    -220.654     242.686
  O       74.471    -219.691     244.941
  O       74.481    -222.233     244.683
  H       73.967    -219.989     245.725
  H       72.199    -219.689     242.027
  H       72.327    -219.823     243.798
  H       71.923    -221.259     242.817
  H       75.735    -218.955     250.965
  H       75.790    -217.278     250.477
  H       77.139    -218.333     250.131

 3  4  5  6  7  8  9  10  11  12  23  26  30  31 0
 6-311+G(2d,p)
 ****
 33  35  36  37  38 0
 6-311+G(2d,p)
 ****
 1  2  13  14  15  16  17  18  19  20  21  22  24  25 0
 3-21G
 ****
 27  28  29  32  34  39  40  41  42  43  44  45  46  47  48  49 0
 3-21G
 ****


