%nproc=1
%NoSave
%Mem=1900MB
#P OB98/GEN NMR

erre ene a

0 1
  C       19.025     258.045     293.236
  O       20.308     258.304     292.715
  H       18.779     256.995     293.046
  H       18.275     258.669     292.747
  H       19.010     258.215     294.316
  P       20.845     259.819     292.686
  C       20.215     260.190     290.227
  O       19.940     260.557     291.575
  C       19.542     261.144     289.239
  O       20.029     260.879     287.898
  C       18.014     261.031     289.208
  O       17.438     262.339     289.246
  C       17.730     260.370     287.866
  O       16.418     260.655     287.393
  C       18.888     260.912     287.022
  N       19.117     260.135     285.806
  C       18.130     260.217     284.819
  O       17.111     260.889     285.013
  N       18.297     259.509     283.656
  C       19.331     258.745     283.512
  N       19.433     258.061     282.341
  C       20.373     258.592     284.545
  C       20.209     259.314     285.653
  O       22.318     259.954     292.487
  O       20.323     260.456     294.056
  H       16.293     260.202     286.530
  H       20.858     261.260     294.271
  H       21.215     257.934     284.381
  H       20.931     259.272     286.463
  H       18.704     261.956     286.734
  H       17.824     259.279     287.969
  H       17.609     260.450     290.031
  H       19.862     262.167     289.481
  H       18.698     258.194     281.655
  H       19.863     259.166     290.064
  H       20.191     257.432     282.119
  H       21.300     260.225     290.076
  P       17.276     262.995     290.704
  C       14.756     262.492     291.030
  O       16.082     262.229     291.457
  O       16.667     264.439     290.388
  O       18.558     263.087     291.467
  H       17.367     265.117     290.427
  H       14.071     261.916     291.617
  H       14.654     262.225     289.999
  H       14.542     263.533     291.152

 6  7  8  9  10  11  12  13  14  15  16  26  30  31  32  33  35 0
 6-311+G(2d,p)
 ****
 37  38 0
 6-311+G(2d,p)
 ****
 1  2  3  4  5  17  18  19  20  21  22  23  24  25 0
 3-21G
 ****
 27  28  29  34  36  39  40  41  42  43  44  45  46 0
 3-21G
 ****


