%nproc=1
%NoSave
%Mem=1900MB
#P OB98/GEN NMR

erre ene a

0 1
  C      -57.796    -401.350     129.922
  O      -57.405    -402.673     130.228
  H      -56.980    -400.819     129.419
  H      -58.660    -401.384     129.255
  H      -58.075    -400.820     130.837
  P      -56.079    -402.836     131.117
  C      -54.892    -404.110     129.194
  O      -54.859    -403.005     130.087
  C      -54.542    -403.658     127.782
  O      -55.284    -402.466     127.445
  C      -53.079    -403.293     127.570
  O      -52.262    -404.447     127.410
  C      -53.172    -402.487     126.283
  O      -53.250    -403.380     125.156
  C      -54.506    -401.743     126.455
  N      -53.940    -396.863     124.958
  C      -54.060    -398.017     124.256
  N      -54.195    -399.273     124.719
  C      -54.216    -399.288     126.062
  C      -54.103    -398.198     126.915
  C      -53.949    -396.936     126.310
  N      -53.810    -395.774     127.035
  N      -54.178    -398.595     128.230
  C      -54.339    -399.902     128.181
  N      -54.360    -400.369     126.892
  O      -56.232    -404.303     131.749
  O      -55.888    -401.803     132.175
  H      -52.380    -403.820     125.086
  H      -55.860    -404.297     132.652
  H      -54.052    -397.906     123.174
  H      -54.445    -400.546     129.044
  H      -55.088    -401.745     125.526
  H      -52.314    -401.832     126.123
  H      -52.710    -402.650     128.377
  H      -54.852    -404.453     127.088
  H      -55.895    -404.547     129.197
  H      -53.903    -394.893     126.557
  H      -53.829    -395.841     128.049
  H      -54.177    -404.865     129.541
  P      -51.294    -404.845     128.628
  C      -49.347    -404.261     127.012
  O      -49.897    -404.120     128.320
  O      -50.979    -406.388     128.345
  O      -51.866    -404.631     129.988
  H      -50.748    -406.837     129.183
  H      -48.421    -403.728     126.955
  H      -50.032    -403.864     126.292
  H      -49.175    -405.297     126.807

 6  7  8  9  10  11  12  13  14  15  25  28  32  33  34  35 0
 6-311+G(2d,p)
 ****
 36  39  40 0
 6-311+G(2d,p)
 ****
 1  2  3  4  5  16  17  18  19  20  21  22  23  24 0
 3-21G
 ****
 26  27  29  30  31  37  38  41  42  43  44  45  46  47  48 0
 3-21G
 ****


