%nproc=1
%NoSave
%Mem=1900MB
#P OB98/GEN NMR

erre ene a

0 1
  C     -780.882    -854.030    -185.707
  O     -780.912    -854.666    -186.983
  H     -781.522    -854.595    -185.021
  H     -781.260    -853.008    -185.783
  H     -779.862    -854.025    -185.307
  P     -780.044    -854.015    -188.162
  C     -780.771    -856.055    -189.580
  O     -780.615    -854.641    -189.530
  C     -781.859    -856.431    -190.577
  O     -783.162    -856.210    -190.017
  C     -781.800    -855.638    -191.879
  O     -780.823    -856.181    -192.753
  C     -783.229    -855.838    -192.378
  O     -783.364    -857.150    -192.945
  C     -784.035    -855.717    -191.072
  N     -787.429    -852.077    -192.016
  C     -787.260    -853.311    -192.618
  N     -788.098    -853.610    -193.645
  N     -786.350    -854.175    -192.257
  C     -785.548    -853.722    -191.264
  C     -785.597    -852.506    -190.612
  C     -786.660    -851.579    -190.989
  O     -786.836    -850.471    -190.478
  N     -784.568    -852.374    -189.706
  C     -783.923    -853.522    -189.793
  N     -784.456    -854.367    -190.727
  O     -778.556    -854.127    -188.027
  O     -780.534    -852.486    -188.223
  H     -782.691    -857.220    -193.650
  H     -779.967    -851.915    -187.662
  H     -788.143    -851.443    -192.354
  H     -783.052    -853.798    -189.192
  H     -784.925    -856.353    -191.089
  H     -783.514    -855.114    -193.149
  H     -788.610    -852.877    -194.131
  H     -781.642    -854.565    -191.698
  H     -787.963    -854.482    -194.121
  H     -781.777    -857.516    -190.779
  H     -781.037    -856.385    -188.563
  H     -779.819    -856.524    -189.879
  P     -779.818    -855.221    -193.554
  C     -779.750    -857.082    -195.353
  O     -779.919    -855.696    -195.087
  O     -778.423    -855.176    -193.006
  O     -780.534    -853.793    -193.577
  H     -780.327    -853.237    -192.790
  H     -779.841    -857.257    -196.405
  H     -780.501    -857.639    -194.833
  H     -778.781    -857.393    -195.022

 6  7  8  9  10  11  12  13  14  15  26  29  33  34 0
 6-311+G(2d,p)
 ****
 36  38  39  40  41 0
 6-311+G(2d,p)
 ****
 1  2  3  4  5  16  17  18  19  20  21  22  23  24  25 0
 3-21G
 ****
 27  28  30  31  32  35  37  42  43  44  45  46  47 0
 3-21G
 ****
 48  49 0
 3-21G
 ****


