%nproc=1
%NoSave
%Mem=1900MB
#P OB98/GEN NMR

erre ene a

0 1
  C      -83.505      48.000     255.510
  O      -83.940      47.478     256.754
  P      -83.328      48.052     258.114
  C      -81.704      46.078     258.402
  O      -81.832      47.489     258.253
  C      -80.260      45.644     258.159
  O      -79.813      46.094     256.862
  C      -79.264      46.221     259.159
  O      -79.333      45.537     260.392
  C      -77.949      46.041     258.402
  O      -77.462      44.693     258.550
  C      -78.382      46.305     256.949
  N      -75.105      49.045     254.157
  C      -75.091      47.752     254.555
  N      -75.986      47.101     255.334
  C      -76.962      47.940     255.728
  C      -77.095      49.291     255.432
  C      -76.115      49.848     254.583
  N      -76.155      51.146     254.118
  N      -78.214      49.817     256.045
  C      -78.740      48.800     256.710
  N      -78.055      47.641     256.495
  O      -84.185      47.873     259.326
  O      -83.101      49.608     257.807
  H      -76.692      44.599     257.958
  H      -83.632      50.143     258.427
  H      -74.255      47.161     254.194
  H      -79.622      48.857     257.340
  H      -77.918      45.594     256.254
  H      -77.164      46.716     258.759
  H      -79.452      47.293     259.298
  H      -80.224      44.547     258.168
  H      -82.365      45.587     257.678
  H      -75.492      51.391     253.405
  H      -77.037      51.645     254.176
  H      -82.018      45.788     259.415
  P      -79.209      46.356     261.770
  C      -76.789      45.603     262.166
  O      -77.656      46.704     261.966
  O      -79.879      45.739     262.955
  O      -79.850      47.784     261.412
  H      -80.277      48.154     262.210
  H      -76.872      45.256     263.202
  H      -75.757      45.929     261.982
  H      -77.026      44.784     261.482
  H      -84.018      47.501     254.715
  H      -82.451      47.845     255.407
  H      -83.717      49.048     255.469

 3  4  5  6  7  8  9  10  11  12  22  25  29  30  31  32 0
 6-311+G(2d,p)
 ****
 33  36  37 0
 6-311+G(2d,p)
 ****
 1  2  13  14  15  16  17  18  19  20  21  23  24  26 0
 3-21G
 ****
 27  28  34  35  38  39  40  41  42  43  44  45  46  47  48 0
 3-21G
 ****


