%nproc=1
%NoSave
%Mem=1900MB
#P OB98/GEN NMR

erre ene a

0 1
  C      122.917    -447.152    -365.719
  O      123.738    -446.547    -366.725
  P      125.318    -446.488    -366.466
  C      125.966    -447.838    -368.592
  O      125.990    -447.755    -367.178
  C      126.429    -449.225    -369.051
  O      125.607    -450.270    -368.493
  C      126.382    -449.410    -370.564
  O      127.531    -448.880    -371.196
  C      126.376    -450.932    -370.669
  O      127.731    -451.425    -370.517
  C      125.521    -451.351    -369.466
  N      122.227    -454.671    -371.393
  C      123.589    -454.795    -371.167
  N      124.147    -455.983    -371.492
  N      124.332    -453.838    -370.660
  C      123.625    -452.717    -370.373
  C      122.285    -452.478    -370.559
  C      121.477    -453.537    -371.128
  O      120.281    -453.487    -371.372
  N      121.937    -451.217    -370.158
  C      123.067    -450.693    -369.697
  N      124.127    -451.568    -369.823
  O      125.441    -446.842    -364.909
  O      125.946    -445.158    -366.776
  H      128.271    -450.950    -371.170
  H      126.238    -446.430    -364.532
  H      121.710    -455.441    -371.789
  H      123.161    -449.707    -369.274
  H      125.885    -452.262    -368.989
  H      126.026    -451.286    -371.638
  H      123.636    -456.773    -371.832
  H      125.450    -449.006    -370.984
  H      125.141    -456.101    -371.294
  H      127.465    -449.366    -368.711
  H      126.617    -447.071    -369.022
  H      124.954    -447.611    -368.948
  P      127.490    -447.343    -371.676
  C      129.249    -446.737    -369.862
  O      127.975    -446.479    -370.413
  O      125.919    -447.048    -371.765
  O      128.170    -447.066    -372.963
  H      125.736    -446.388    -372.467
  H      129.480    -445.953    -369.134
  H      130.017    -446.718    -370.646
  H      129.253    -447.708    -369.356
  H      121.893    -447.120    -366.027
  H      123.029    -446.618    -364.798
  H      123.215    -448.170    -365.580

 3  4  5  6  7  8  9  10  11  12  23  26  30  31 0
 6-311+G(2d,p)
 ****
 33  35  36  37  38 0
 6-311+G(2d,p)
 ****
 1  2  13  14  15  16  17  18  19  20  21  22  24  25 0
 3-21G
 ****
 27  28  29  32  34  39  40  41  42  43  44  45  46  47  48  49 0
 3-21G
 ****


