%nproc=1
%NoSave
%Mem=1900MB
#P OB98/GEN NMR

erre ene a

0 1
  C     -276.042    -535.250    -896.900
  O     -275.027    -535.670    -896.020
  P     -275.454    -536.360    -894.630
  C     -274.344    -538.004    -892.950
  O     -274.272    -537.367    -894.220
  C     -273.388    -539.187    -892.900
  O     -273.877    -540.286    -893.680
  C     -272.004    -538.881    -893.490
  O     -271.147    -538.207    -892.560
  C     -271.448    -540.295    -893.730
  O     -270.973    -540.865    -892.510
  C     -272.745    -541.039    -894.200
  N     -271.097    -543.505    -898.320
  C     -270.946    -543.819    -896.960
  N     -270.175    -544.876    -896.680
  N     -271.470    -543.129    -895.990
  C     -272.209    -542.061    -896.420
  C     -272.426    -541.663    -897.750
  C     -271.854    -542.425    -898.810
  O     -271.891    -542.200    -900.000
  N     -273.244    -540.538    -897.780
  C     -273.467    -540.243    -896.510
  N     -272.848    -541.123    -895.680
  O     -276.647    -537.364    -895.070
  O     -275.905    -535.413    -893.570
  H     -270.132    -540.429    -892.320
  H     -277.161    -537.609    -894.300
  H     -270.672    -544.066    -899.010
  H     -274.099    -539.435    -896.170
  H     -272.799    -542.069    -893.780
  H     -270.648    -540.319    -894.440
  H     -269.693    -545.429    -897.400
  H     -272.055    -538.353    -894.450
  H     -269.989    -545.111    -895.700
  H     -273.271    -539.525    -891.840
  H     -275.369    -538.367    -892.780
  H     -274.100    -537.289    -892.170
  P     -269.753    -537.661    -893.130
  C     -268.263    -535.668    -892.330
  O     -269.558    -536.196    -892.430
  O     -270.091    -537.306    -894.660
  O     -268.633    -538.610    -893.010
  H     -269.286    -537.349    -895.200
  H     -268.355    -534.601    -892.060
  H     -267.711    -535.763    -893.280
  H     -267.719    -536.162    -891.530
  H     -275.600    -534.815    -897.772
  H     -276.659    -534.524    -896.413
  H     -276.638    -536.092    -897.184

 3  4  5  6  7  8  9  10  11  12  23  26  30  31 0
 6-311+G(2d,p)
 ****
 33  35  36  37  38 0
 6-311+G(2d,p)
 ****
 1  2  13  14  15  16  17  18  19  20  21  22  24  25 0
 3-21G
 ****
 27  28  29  32  34  39  40  41  42  43  44  45  46  47  48  49 0
 3-21G
 ****


