%nproc=1
%NoSave
%Mem=1900MB
#P OB98/GEN NMR

erre ene a

0 1
  C       22.869     -21.404     -50.122
  O       24.109     -20.775     -49.869
  H       22.958     -21.998     -51.036
  H       22.093     -20.650     -50.268
  H       22.596     -22.066     -49.297
  P       24.257     -20.018     -48.462
  C       25.207     -22.083     -47.209
  O       25.438     -20.759     -47.668
  C       26.533     -22.784     -46.931
  O       27.282     -22.949     -48.155
  C       27.449     -22.032     -45.970
  O       27.103     -22.273     -44.613
  C       28.790     -22.659     -46.315
  O       28.886     -23.965     -45.710
  C       28.694     -22.787     -47.840
  N       32.795     -20.759     -50.022
  C       32.646     -21.961     -49.357
  N       33.751     -22.729     -49.249
  N       31.518     -22.373     -48.839
  C       30.500     -21.497     -49.013
  C       30.523     -20.279     -49.655
  C       31.773     -19.840     -50.230
  O       31.955     -18.796     -50.849
  N       29.291     -19.681     -49.639
  C       28.528     -20.524     -48.971
  N       29.216     -21.639     -48.564
  O       22.941     -20.462     -47.662
  O       24.368     -18.533     -48.543
  H       28.800     -23.836     -44.748
  H       22.638     -19.712     -47.115
  H       33.688     -20.485     -50.392
  H       27.479     -20.376     -48.760
  H       29.219     -23.671     -48.219
  H       29.635     -22.074     -45.950
  H       34.661     -22.449     -49.581
  H       27.479     -20.961     -46.198
  H       33.660     -23.628     -48.795
  H       26.310     -23.787     -46.546
  H       24.659     -22.639     -47.977
  H       24.603     -22.044     -46.298
  P       27.305     -21.068     -43.569
  C       24.907     -20.125     -43.895
  O       25.840     -20.734     -43.008
  O       27.631     -19.821     -44.518
  O       28.366     -21.290     -42.547
  H       28.120     -19.140     -44.018
  H       23.981     -19.964     -43.383
  H       24.743     -20.766     -44.736
  H       25.296     -19.187     -44.233

 6  7  8  9  10  11  12  13  14  15  26  29  33  34 0
 6-311+G(2d,p)
 ****
 36  38  39  40  41 0
 6-311+G(2d,p)
 ****
 1  2  3  4  5  16  17  18  19  20  21  22  23  24  25 0
 3-21G
 ****
 27  28  30  31  32  35  37  42  43  44  45  46  47 0
 3-21G
 ****
 48  49 0
 3-21G
 ****


