%nproc=1
%NoSave
%Mem=1900MB
#P OB98/GEN NMR

erre ene a

0 1
  C      850.482    -511.859    -898.810
  O      850.413    -511.202    -897.560
  H      850.186    -512.908    -898.670
  H      851.501    -511.830    -899.190
  H      849.798    -511.393    -899.530
  P      850.720    -509.620    -897.560
  C      848.766    -508.723    -896.130
  O      849.302    -508.877    -897.440
  C      847.948    -507.421    -896.050
  O      848.853    -506.268    -896.180
  C      846.875    -507.285    -897.150
  O      845.739    -506.592    -896.570
  C      847.524    -506.357    -898.150
  O      846.588    -505.689    -898.990
  C      848.285    -505.417    -897.200
  N      849.457    -500.874    -899.010
  C      848.346    -501.308    -898.320
  N      847.397    -500.372    -898.070
  N      848.183    -502.528    -897.900
  C      849.226    -503.337    -898.200
  C      850.385    -503.043    -898.880
  C      850.543    -501.681    -899.350
  O      851.487    -501.253    -900.000
  N      851.184    -504.145    -898.990
  C      850.530    -505.113    -898.380
  N      849.329    -504.679    -897.880
  O      851.164    -509.350    -899.070
  O      851.772    -509.167    -896.580
  H      846.071    -505.079    -898.430
  H      852.132    -509.406    -899.160
  H      849.543    -499.921    -899.310
  H      850.859    -506.143    -898.280
  H      847.631    -504.690    -896.720
  H      848.226    -506.914    -898.790
  H      847.474    -499.398    -898.310
  H      846.542    -508.224    -897.590
  H      846.579    -500.661    -897.530
  H      847.501    -507.349    -895.050
  H      849.577    -508.665    -895.400
  H      848.129    -509.570    -895.890
  P      844.323    -507.348    -896.600
  C      844.304    -507.404    -894.000
  O      844.162    -508.129    -895.220
  O      844.563    -508.530    -897.660
  O      843.182    -506.474    -897.000
  H      843.722    -508.767    -898.080
  H      844.168    -508.068    -893.172
  H      843.569    -506.628    -893.959
  H      845.282    -506.972    -893.954

 6  7  8  9  10  11  12  13  14  15  26  29  33  34 0
 6-311+G(2d,p)
 ****
 36  38  39  40  41 0
 6-311+G(2d,p)
 ****
 1  2  3  4  5  16  17  18  19  20  21  22  23  24  25 0
 3-21G
 ****
 27  28  30  31  32  35  37  42  43  44  45  46  47 0
 3-21G
 ****
 48  49 0
 3-21G
 ****


