%nproc=1
%NoSave
%Mem=1900MB
#P OB98/GEN NMR

erre ene a

0 1
  C      -95.467      10.343       2.253
  O      -96.777      10.630       1.749
  P      -97.720       9.485       1.137
  C      -98.850       8.526       3.233
  O      -99.035       9.289       2.045
  C      -99.850       8.886       4.341
  O      -99.492      10.144       4.978
  C     -101.308       9.022       3.879
  O     -102.112       8.619       4.989
  C     -101.427      10.522       3.650
  O     -102.769      10.986       3.628
  C     -100.602      11.048       4.820
  N     -101.981      15.972       4.478
  C     -102.654      14.877       4.895
  N     -102.208      13.608       4.994
  C     -100.913      13.525       4.648
  C     -100.090      14.557       4.215
  C     -100.680      15.830       4.120
  N     -100.012      16.941       3.654
  N      -98.826      14.085       3.918
  C      -98.885      12.789       4.163
  N     -100.127      12.403       4.610
  O      -97.006       8.210       0.816
  O      -98.299      10.132      -0.213
  H     -103.201      10.718       4.461
  H      -98.235       9.480      -0.936
  H     -103.689      15.041       5.182
  H      -98.080      12.085       4.015
  H     -101.180      11.036       5.754
  H     -100.971      10.774       2.683
  H     -101.542       8.434       2.992
  H      -99.770       8.111       5.118
  H      -97.826       8.691       3.598
  H     -100.542      17.788       3.537
  H      -99.084      16.831       3.265
  H      -98.946       7.462       2.987
  P     -102.919       7.231       4.988
  C     -101.684       5.046       5.493
  O     -102.170       6.265       6.026
  O     -103.148       6.641       3.633
  O     -104.300       7.568       5.724
  H     -104.962       6.882       5.500
  H     -102.514       4.347       5.348
  H     -100.966       4.613       6.192
  H     -101.178       5.213       4.534
  H      -95.017      11.245       2.611
  H      -94.866       9.931       1.470
  H      -95.540       9.638       3.055

 3  4  5  6  7  8  9  10  11  12  22  25  29  30  31  32 0
 6-311+G(2d,p)
 ****
 33  36  37 0
 6-311+G(2d,p)
 ****
 1  2  13  14  15  16  17  18  19  20  21  23  24  26 0
 3-21G
 ****
 27  28  34  35  38  39  40  41  42  43  44  45  46  47  48 0
 3-21G
 ****


