%nproc=1
%NoSave
%Mem=1900MB
#P OB98/GEN NMR

erre ene a

0 1
  C     -185.470     269.017     -36.725
  O     -184.982     268.199     -37.762
  H     -186.193     269.721     -37.148
  H     -184.658     269.593     -36.275
  H     -185.972     268.418     -35.962
  P     -183.864     267.094     -37.431
  C     -181.320     267.125     -37.080
  O     -182.481     267.914     -37.312
  C     -180.328     267.861     -36.178
  O     -179.836     269.046     -36.862
  C     -180.931     268.318     -34.841
  O     -180.048     267.973     -33.770
  C     -180.999     269.830     -34.975
  O     -181.000     270.502     -33.720
  C     -179.791     270.096     -35.875
  N     -179.831     271.425     -36.474
  C     -178.695     272.218     -36.292
  O     -177.732     271.783     -35.657
  N     -178.700     273.502     -36.776
  C     -179.764     273.967     -37.352
  N     -179.714     275.256     -37.788
  C     -180.996     273.169     -37.542
  C     -180.960     271.918     -37.087
  O     -183.832     265.936     -38.373
  O     -184.149     266.663     -35.917
  H     -181.631     270.044     -33.121
  H     -183.757     265.773     -35.760
  H     -181.857     273.608     -38.027
  H     -181.816     271.259     -37.181
  H     -178.851     269.993     -35.313
  H     -181.923     270.103     -35.503
  H     -181.911     267.887     -34.641
  H     -179.456     267.214     -36.020
  H     -178.850     275.765     -37.629
  H     -180.858     266.891     -38.046
  H     -180.485     275.731     -38.227
  H     -181.625     266.197     -36.589
  P     -180.665     267.052     -32.606
  C     -182.512     267.272     -30.799
  O     -181.849     267.873     -31.901
  O     -179.503     267.017     -31.505
  O     -181.025     265.675     -33.069
  H     -179.102     266.126     -31.473
  H     -183.271     267.933     -30.436
  H     -181.805     267.079     -30.019
  H     -182.959     266.351     -31.111

 6  7  8  9  10  11  12  13  14  15  16  26  30  31  32  33  35 0
 6-311+G(2d,p)
 ****
 37  38 0
 6-311+G(2d,p)
 ****
 1  2  3  4  5  17  18  19  20  21  22  23  24  25 0
 3-21G
 ****
 27  28  29  34  36  39  40  41  42  43  44  45  46 0
 3-21G
 ****


