%nproc=1
%NoSave
%Mem=1900MB
#P OB98/GEN NMR

erre ene a

0 1
  C       81.591    -312.461    -114.566
  O       82.579    -312.213    -115.579
  P       82.094    -311.588    -116.973
  C       84.619    -311.221    -117.468
  O       83.336    -311.552    -117.982
  C       85.683    -311.330    -118.570
  O       85.817    -312.684    -119.045
  C       85.372    -310.497    -119.800
  O       85.753    -309.134    -119.629
  C       86.267    -311.163    -120.841
  O       87.621    -310.692    -120.690
  C       86.175    -312.645    -120.441
  N       84.675    -314.063    -125.133
  C       85.701    -313.295    -124.715
  N       86.019    -312.946    -123.450
  C       85.167    -313.501    -122.573
  C       84.082    -314.312    -122.849
  C       83.839    -314.598    -124.208
  N       82.797    -315.389    -124.634
  N       83.435    -314.685    -121.688
  C       84.127    -314.111    -120.725
  N       85.173    -313.383    -121.203
  O       81.868    -310.043    -116.613
  O       80.846    -312.210    -117.512
  H       88.106    -310.980    -121.492
  H       81.116    -309.686    -117.131
  H       86.346    -312.898    -125.489
  H       83.905    -314.212    -119.665
  H       87.129    -313.163    -120.563
  H       85.967    -310.933    -121.863
  H       84.317    -310.605    -120.094
  H       86.649    -311.009    -118.142
  H       84.880    -311.878    -116.636
  H       82.706    -315.572    -125.620
  H       82.190    -315.798    -123.939
  H       84.587    -310.202    -117.056
  P       84.788    -308.211    -118.745
  C       86.224    -306.252    -117.827
  O       85.370    -306.731    -118.856
  O       85.127    -308.656    -117.250
  O       83.338    -308.377    -119.051
  H       84.343    -308.556    -116.677
  H       86.768    -305.379    -118.194
  H       86.941    -307.016    -117.516
  H       85.608    -305.956    -116.964
  H       82.064    -312.876    -113.700
  H       80.863    -313.151    -114.939
  H       81.110    -311.542    -114.304

 3  4  5  6  7  8  9  10  11  12  22  25  29  30  31  32 0
 6-311+G(2d,p)
 ****
 33  36  37 0
 6-311+G(2d,p)
 ****
 1  2  13  14  15  16  17  18  19  20  21  23  24  26 0
 3-21G
 ****
 27  28  34  35  38  39  40  41  42  43  44  45  46  47  48 0
 3-21G
 ****


