%nproc=1
%NoSave
%Mem=1900MB
#P OB98/GEN NMR

erre ene a

0 1
  C        6.764    -298.463    -138.675
  O        7.191    -298.915    -137.400
  P        6.081    -299.502    -136.400
  C        7.200    -301.856    -136.454
  O        6.025    -301.087    -136.651
  C        7.330    -302.277    -134.986
  O        6.139    -303.024    -134.617
  C        8.537    -303.171    -134.672
  O        8.949    -302.861    -133.337
  C        7.947    -304.570    -134.716
  O        8.734    -305.520    -134.000
  C        6.565    -304.314    -134.126
  N        3.718    -308.180    -132.524
  C        4.662    -307.432    -131.838
  N        4.823    -307.718    -130.527
  N        5.382    -306.488    -132.388
  C        5.096    -306.302    -133.705
  C        4.221    -307.001    -134.496
  C        3.405    -308.019    -133.867
  O        2.500    -308.643    -134.413
  N        4.279    -306.584    -135.800
  C        5.126    -305.578    -135.781
  N        5.621    -305.339    -134.521
  O        4.712    -298.969    -137.030
  O        6.237    -299.118    -134.960
  H        8.385    -306.411    -134.208
  H        4.434    -298.133    -136.615
  H        3.182    -308.883    -132.038
  H        5.424    -304.987    -136.631
  H        6.575    -304.276    -133.027
  H        7.877    -304.907    -135.758
  H        4.280    -308.413    -130.034
  H        9.367    -303.037    -135.367
  H        5.478    -307.163    -129.998
  H        7.352    -301.374    -134.368
  H        8.073    -301.243    -136.713
  H        7.183    -302.733    -137.107
  P       10.493    -303.085    -132.956
  C       10.933    -300.530    -132.956
  O       11.303    -301.799    -133.460
  O       10.946    -304.233    -133.983
  O       10.734    -303.509    -131.543
  H       11.629    -304.791    -133.568
  H       11.782    -299.846    -133.057
  H       10.645    -300.582    -131.906
  H       10.096    -300.138    -133.542
  H        7.607    -298.102    -139.226
  H        6.053    -297.673    -138.554
  H        6.310    -299.273    -139.207

 3  4  5  6  7  8  9  10  11  12  23  26  30  31 0
 6-311+G(2d,p)
 ****
 33  35  36  37  38 0
 6-311+G(2d,p)
 ****
 1  2  13  14  15  16  17  18  19  20  21  22  24  25 0
 3-21G
 ****
 27  28  29  32  34  39  40  41  42  43  44  45  46  47  48  49 0
 3-21G
 ****


