%nproc=1
%NoSave
%Mem=1900MB
#P OB98/GEN NMR

erre ene a

0 1
  C     -127.009     109.054     207.246
  O     -128.368     108.812     207.627
  P     -129.092     107.471     207.132
  C     -128.007     105.972     208.930
  O     -129.223     106.462     208.377
  C     -128.288     104.938     210.031
  O     -129.594     105.179     210.639
  C     -128.299     103.499     209.498
  O     -127.806     102.588     210.496
  C     -129.778     103.218     209.309
  O     -130.052     101.818     209.278
  C     -130.363     103.967     210.504
  N     -134.919     102.219     208.925
  C     -133.710     101.618     209.030
  N     -132.549     102.139     209.480
  C     -132.716     103.416     209.863
  C     -133.891     104.160     209.823
  C     -135.032     103.511     209.320
  N     -136.252     104.134     209.188
  N     -133.675     105.441     210.293
  C     -132.384     105.485     210.564
  N     -131.770     104.280     210.352
  O     -128.541     106.863     205.881
  O     -130.612     107.945     206.915
  H     -131.007     101.709     209.113
  H     -130.955     107.547     206.092
  H     -133.673     100.580     208.704
  H     -131.848     106.363     210.899
  H     -130.250     103.398     211.435
  H     -130.120     103.657     208.359
  H     -127.728     103.349     208.574
  H     -127.538     105.054     210.826
  H     -127.426     106.803     209.338
  H     -136.986     103.627     208.708
  H     -136.311     105.131     209.339
  H     -127.393     105.546     208.128
  P     -126.374     101.910     210.191
  C     -124.763     103.126     211.856
  O     -125.549     101.993     211.565
  O     -125.700     102.470     208.979
  O     -126.763     100.362     210.052
  H     -127.304     100.013     210.784
  H     -124.395     103.044     212.885
  H     -125.354     104.047     211.774
  H     -123.907     103.177     211.174
  H     -126.684     109.986     207.658
  H     -126.939     109.092     206.179
  H     -126.389     108.265     207.616

 3  4  5  6  7  8  9  10  11  12  22  25  29  30  31  32 0
 6-311+G(2d,p)
 ****
 33  36  37 0
 6-311+G(2d,p)
 ****
 1  2  13  14  15  16  17  18  19  20  21  23  24  26 0
 3-21G
 ****
 27  28  34  35  38  39  40  41  42  43  44  45  46  47  48 0
 3-21G
 ****


