%nproc=1
%NoSave
%Mem=1900MB
#P OB98/GEN NMR

erre ene a

0 1
  C      -22.909     116.419    -135.214
  O      -21.519     116.245    -135.019
  H      -23.064     117.122    -136.035
  H      -23.355     116.836    -134.307
  H      -23.389     115.468    -135.463
  P      -21.058     115.032    -134.077
  C      -20.198     113.480    -135.966
  O      -19.862     114.274    -134.839
  C      -18.968     113.266    -136.852
  O      -18.308     114.549    -137.047
  C      -17.935     112.298    -136.257
  O      -17.383     111.507    -137.315
  C      -16.867     113.221    -135.697
  O      -15.588     112.593    -135.614
  C      -16.927     114.385    -136.682
  N      -13.487     118.029    -137.241
  C      -13.820     116.980    -138.077
  N      -13.125     116.880    -139.232
  N      -14.752     116.103    -137.802
  C      -15.385     116.348    -136.627
  C      -15.145     117.346    -135.712
  C      -14.093     118.294    -136.016
  O      -13.734     119.229    -135.307
  N      -15.978     117.238    -134.627
  C      -16.719     116.174    -134.886
  N      -16.402     115.605    -136.089
  O      -22.283     114.004    -134.182
  O      -20.772     115.396    -132.657
  H      -15.695     111.776    -135.078
  H      -22.711     113.911    -133.311
  H      -12.752     118.666    -137.496
  H      -17.486     115.773    -134.238
  H      -16.348     114.193    -137.593
  H      -17.151     113.546    -134.689
  H      -12.433     117.548    -139.531
  H      -18.354     111.640    -135.494
  H      -13.380     116.139    -139.880
  H      -19.303     112.928    -137.840
  H      -20.977     113.989    -136.539
  H      -20.581     112.510    -135.627
  P      -17.472     109.912    -137.154
  C      -19.909     109.167    -137.628
  O      -18.605     109.364    -138.155
  O      -18.128     109.729    -135.705
  O      -16.150     109.219    -137.247
  H      -17.457     109.404    -135.076
  H      -20.554     108.803    -138.400
  H      -20.287     110.096    -137.256
  H      -19.868     108.454    -136.831

 6  7  8  9  10  11  12  13  14  15  26  29  33  34 0
 6-311+G(2d,p)
 ****
 36  38  39  40  41 0
 6-311+G(2d,p)
 ****
 1  2  3  4  5  16  17  18  19  20  21  22  23  24  25 0
 3-21G
 ****
 27  28  30  31  32  35  37  42  43  44  45  46  47 0
 3-21G
 ****
 48  49 0
 3-21G
 ****


