%nproc=1
%NoSave
%Mem=1900MB
#P OB98/GEN NMR

erre ene a

0 1
  C     -149.960     282.794     518.280
  O     -149.550     281.523     517.802
  P     -148.001     281.218     517.466
  C     -148.158     282.603     515.280
  O     -147.532     282.454     516.556
  C     -147.182     283.247     514.296
  O     -146.896     284.595     514.696
  C     -145.828     282.544     514.210
  O     -145.920     281.342     513.454
  C     -144.975     283.655     513.593
  O     -145.190     283.716     512.179
  C     -145.553     284.903     514.272
  N     -144.738     285.377     515.398
  C     -143.611     286.138     515.082
  O     -143.329     286.399     513.900
  N     -142.824     286.625     516.095
  C     -143.131     286.346     517.337
  N     -142.359     286.906     518.305
  C     -144.280     285.496     517.717
  C     -145.038     285.060     516.704
  O     -147.744     279.875     516.884
  O     -147.234     281.487     518.841
  H     -145.025     282.813     511.834
  H     -147.184     280.696     519.432
  H     -144.478     285.284     518.759
  H     -145.905     284.445     516.900
  H     -145.650     285.726     513.544
  H     -143.899     283.522     513.764
  H     -145.457     282.304     515.217
  H     -147.665     283.265     513.312
  H     -141.693     287.612     518.011
  H     -149.027     283.259     515.400
  H     -142.686     286.990     519.260
  H     -148.496     281.623     514.931
  P     -144.822     280.207     513.744
  C     -143.169     280.129     511.736
  O     -143.475     280.695     513.002
  O     -145.333     278.979     512.856
  O     -144.664     279.845     515.177
  H     -145.796     278.310     513.409
  H     -142.377     280.735     511.268
  H     -144.053     280.136     511.084
  H     -142.799     279.100     511.863
  H     -151.018     282.791     518.440
  H     -149.711     283.544     517.558
  H     -149.460     283.007     519.202

 3  4  5  6  7  8  9  10  11  12  13  23  27  28  29  30  32 0
 6-311+G(2d,p)
 ****
 34  35 0
 6-311+G(2d,p)
 ****
 1  2  14  15  16  17  18  19  20  21  22  24  25  26 0
 3-21G
 ****
 31  33  36  37  38  39  40  41  42  43  44  45  46 0
 3-21G
 ****


