%nproc=1
%NoSave
%Mem=1900MB
#P OB98/GEN NMR

erre ene a

0 1
  C       59.945     -19.327       2.065
  O       59.262     -20.556       2.202
  H       61.017     -19.526       1.984
  H       59.771     -18.699       2.943
  H       59.613     -18.805       1.163
  P       57.662     -20.485       2.295
  C       57.553     -19.908       4.828
  O       57.283     -20.862       3.808
  C       57.405     -20.563       6.199
  O       57.789     -19.620       7.225
  C       55.981     -20.984       6.541
  O       55.626     -22.206       5.919
  C       56.056     -21.074       8.059
  O       56.591     -22.334       8.486
  C       57.032     -19.944       8.412
  N       54.295     -18.064      12.278
  C       54.901     -19.258      12.097
  N       55.631     -19.675      11.040
  C       55.712     -18.707      10.112
  C       55.142     -17.447      10.154
  C       54.403     -17.129      11.305
  N       53.757     -15.928      11.474
  N       55.410     -16.755       8.990
  C       56.137     -17.579       8.263
  N       56.348     -18.766       8.903
  O       57.199     -21.769       1.457
  O       57.049     -19.227       1.779
  H       56.152     -23.020       7.949
  H       57.005     -21.507       0.538
  H       54.781     -19.973      12.905
  H       56.522     -17.366       7.273
  H       57.752     -20.245       9.182
  H       55.069     -20.971       8.512
  H       55.275     -20.190       6.268
  H       58.088     -21.420       6.251
  H       56.841     -19.080       4.746
  H       58.568     -19.521       4.693
  H       53.225     -15.778      12.317
  H       53.743     -15.267      10.710
  P       54.434     -22.202       4.850
  C       52.751     -22.945       6.687
  O       53.288     -23.183       5.396
  O       55.054     -22.996       3.607
  O       53.950     -20.845       4.461
  H       55.353     -22.372       2.920
  H       52.003     -23.679       6.903
  H       52.312     -21.970       6.716
  H       53.533     -23.006       7.415

 6  7  8  9  10  11  12  13  14  15  25  28  32  33  34  35 0
 6-311+G(2d,p)
 ****
 36  37  40 0
 6-311+G(2d,p)
 ****
 1  2  3  4  5  16  17  18  19  20  21  22  23  24 0
 3-21G
 ****
 26  27  29  30  31  38  39 41  42  43  44  45  46  47  48 0
 3-21G
 ****


