%nproc=1
%NoSave
%Mem=1900MB
#P OB98/GEN NMR

erre ene a

0 1
  C      -71.595     141.681     -37.534
  O      -70.812     141.031     -38.516
  H      -70.990     142.464     -37.069
  H      -71.907     140.970     -36.764
  H      -72.471     142.139     -37.999
  P      -71.507     139.816     -39.298
  C      -70.986     140.484     -41.732
  O      -70.631     139.650     -40.635
  C      -70.311     139.995     -43.014
  O      -68.915     140.385     -42.978
  C      -70.365     138.476     -43.190
  O      -70.564     138.170     -44.569
  C      -68.983     138.018     -42.760
  O      -68.611     136.779     -43.357
  C      -68.118     139.206     -43.180
  N      -63.481     137.175     -42.555
  C      -64.427     136.992     -43.500
  N      -65.634     137.590     -43.600
  C      -65.802     138.490     -42.615
  C      -64.930     138.782     -41.581
  C      -63.717     138.071     -41.567
  N      -62.759     138.232     -40.594
  N      -65.478     139.731     -40.741
  C      -66.654     140.017     -41.267
  N      -66.901     139.278     -42.392
  O      -72.978     139.939     -39.510
  O      -71.043     138.559     -38.424
  H      -67.657     136.630     -43.190
  H      -70.099     138.618     -38.187
  H      -64.189     136.268     -44.274
  H      -67.363     140.733     -40.867
  H      -67.822     139.159     -44.235
  H      -68.960     137.888     -41.671
  H      -71.151     138.014     -42.591
  H      -70.763     140.512     -43.869
  H      -70.686     141.518     -41.532
  H      -61.911     137.692     -40.668
  H      -62.909     138.908     -39.859
  H      -72.074     140.452     -41.840
  P      -72.027     138.371     -45.193
  C      -71.854     138.743     -47.741
  O      -72.026     137.796     -46.692
  O      -72.628     139.725     -45.025
  O      -72.889     137.267     -44.410
  H      -73.779     137.629     -44.232
  H      -71.872     138.238     -48.684
  H      -70.915     139.242     -47.621
  H      -72.646     139.461     -47.706

 6  7  8  9  10  11  12  13  14  15  25  28  32  33  34  35 0
 6-311+G(2d,p)
 ****
 36  39  40 0
 6-311+G(2d,p)
 ****
 1  2  3  4  5  16  17  18  19  20  21  22  23  24 0
 3-21G
 ****
 26  27  29  30  31  37  38  41  42  43  44  45  46  47 0
 3-21G
 ****
 48 0
 3-21G
 ****


