%nproc=1
%NoSave
%Mem=1900MB
#P OB98/GEN NMR

erre ene a

0 1
  C     -223.883    -477.201     656.425
  O     -222.850    -476.264     656.213
  H     -224.137    -477.660     655.468
  H     -224.774    -476.703     656.819
  H     -223.554    -477.983     657.113
  P     -222.328    -475.392     657.455
  C     -221.434    -473.509     655.929
  O     -221.117    -474.491     656.913
  C     -220.537    -473.684     654.700
  O     -219.157    -473.644     655.149
  C     -220.777    -475.022     653.984
  O     -221.031    -474.869     652.592
  C     -219.571    -475.860     654.401
  O     -219.225    -476.877     653.490
  C     -218.480    -474.808     654.637
  N     -217.436    -475.245     655.562
  C     -216.294    -475.815     655.010
  O     -216.088    -475.972     653.812
  N     -215.339    -476.218     655.909
  C     -215.420    -476.122     657.270
  O     -214.532    -476.498     658.023
  C     -216.664    -475.532     657.792
  C     -217.599    -475.130     656.929
  O     -222.030    -476.161     658.698
  O     -223.495    -474.320     657.692
  H     -220.010    -477.461     653.396
  H     -224.008    -474.570     658.486
  H     -214.500    -476.621     655.524
  H     -216.768    -475.453     658.867
  H     -218.527    -474.693     657.280
  H     -217.999    -474.538     653.698
  H     -219.807    -476.349     655.355
  H     -221.689    -475.504     654.356
  H     -220.689    -472.831     654.028
  H     -221.275    -472.523     656.380
  H     -222.486    -473.605     655.642
  P     -222.369    -475.320     651.848
  C     -221.305    -476.461     649.729
  O     -222.076    -475.402     650.276
  O     -223.617    -474.621     652.264
  O     -222.525    -476.873     652.257
  H     -223.487    -477.053     652.291
  H     -221.226    -476.334     648.670
  H     -221.781    -477.395     649.942
  H     -220.327    -476.452     650.163

 6  7  8  9  10  11  12  13  14  15  16  26  31  32  33  34  35 0
 6-311+G(2d,p)
 ****
 36  37 0
 6-311+G(2d,p)
 ****
 1  2  3  4  5  17  18  19  20  21  22  23  24  25 0
 3-21G
 ****
 27  28  29  30  38  39  40  41  42  43  44  45 0
 3-21G
 ****


