%nproc=1
%NoSave
%Mem=1900MB
#P OB98/GEN NMR

erre ene a

0 1
  C       94.670    -153.396      62.143
  O       94.968    -153.408      60.754
  P       93.936    -154.160      59.776
  C       95.385    -156.315      59.905
  O       94.101    -155.722      60.098
  C       95.415    -157.726      60.484
  O       95.214    -157.684      61.910
  C       94.335    -158.655      59.945
  O       94.685    -159.214      58.688
  C       94.314    -159.730      61.019
  O       95.413    -160.637      60.823
  C       94.528    -158.907      62.297
  N       90.885    -160.651      65.429
  C       91.957    -161.254      64.877
  N       92.876    -160.723      64.044
  C       92.582    -159.443      63.759
  C       91.500    -158.709      64.224
  C       90.626    -159.360      65.108
  N       89.547    -158.740      65.696
  N       91.529    -157.429      63.712
  C       92.611    -157.385      62.969
  N       93.289    -158.576      62.971
  O       94.621    -154.004      58.337
  O       92.543    -153.626      59.797
  H       95.350    -161.316      61.520
  H       93.948    -154.088      57.640
  H       92.102    -162.297      65.146
  H       92.950    -156.519      62.413
  H       95.168    -159.422      63.023
  H       93.398    -160.327      61.009
  H       93.359    -158.151      59.909
  H       96.411    -158.148      60.296
  H       96.138    -155.705      60.414
  H       89.085    -159.214      66.453
  H       89.478    -157.727      65.610
  H       95.612    -156.335      58.834
  P       93.486    -159.470      57.649
  C       93.131    -161.884      58.538
  O       92.575    -160.602      58.321
  O       94.215    -160.221      56.441
  O       92.785    -158.229      57.213
  H       93.724    -160.079      55.607
  H       92.512    -162.418      59.263
  H       94.149    -161.815      58.935
  H       93.138    -162.449      57.599
  H       95.437    -152.865      62.668
  H       94.620    -154.401      62.506
  H       93.729    -152.913      62.302

 3  4  5  6  7  8  9  10  11  12  22  25  29  30  31  32 0
 6-311+G(2d,p)
 ****
 33  36  37 0
 6-311+G(2d,p)
 ****
 1  2  13  14  15  16  17  18  19  20  21  23  24  26 0
 3-21G
 ****
 27  28  34  35  38  39  40  41  42  43  44  45  46  47  48 0
 3-21G
 ****


