%nproc=1
%NoSave
%Mem=1900MB
#P OB98/GEN NMR

erre ene a

0 1
  C      357.820    -377.716       0.423
  O      358.947    -377.264      -0.305
  H      356.978    -377.051       0.203
  H      358.022    -377.682       1.496
  H      357.548    -378.733       0.126
  P      360.282    -378.152      -0.287
  C      360.421    -378.241      -2.861
  O      361.065    -377.846      -1.655
  C      361.016    -377.459      -4.038
  O      360.490    -376.113      -4.054
  C      362.531    -377.309      -3.977
  O      363.178    -378.512      -4.353
  C      362.743    -376.147      -4.932
  O      362.726    -376.588      -6.300
  C      361.518    -375.256      -4.620
  N      361.831    -374.148      -3.725
  C      362.131    -372.925      -4.332
  O      362.179    -372.772      -5.553
  N      362.417    -371.894      -3.480
  C      362.532    -371.989      -2.121
  O      362.876    -371.049      -1.408
  C      362.229    -373.294      -1.540
  C      361.894    -374.303      -2.353
  O      360.097    -379.597       0.025
  O      361.197    -377.428       0.816
  H      363.519    -377.153      -6.418
  H      361.199    -377.960       1.632
  H      362.654    -371.012      -3.901
  H      362.294    -373.402      -0.463
  H      361.670    -375.279      -1.945
  H      361.103    -374.848      -5.553
  H      363.694    -375.646      -4.766
  H      362.836    -377.006      -2.971
  H      360.709    -377.958      -4.969
  H      359.350    -378.017      -2.780
  H      360.559    -379.316      -3.003
  P      364.579    -378.910      -3.685
  C      364.047    -381.346      -3.051
  O      364.798    -380.481      -3.902
  O      364.773    -378.430      -2.279
  O      365.661    -378.255      -4.665
  H      366.199    -377.606      -4.170
  H      364.275    -382.364      -3.287
  H      363.002    -381.171      -3.198
  H      364.302    -381.151      -2.030

 6  7  8  9  10  11  12  13  14  15  16  26  31  32  33  34  35 0
 6-311+G(2d,p)
 ****
 36  37 0
 6-311+G(2d,p)
 ****
 1  2  3  4  5  17  18  19  20  21  22  23  24  25 0
 3-21G
 ****
 27  28  29  30  38  39  40  41  42  43  44  45 0
 3-21G
 ****


