%nproc=1
%NoSave
%Mem=1900MB
#P OB98/GEN NMR

erre ene a

0 1
  C      410.870     -49.350     -17.744
  O      410.465     -50.339     -16.820
  P      410.754     -51.897     -17.017
  C      412.834     -51.866     -15.466
  O      412.319     -52.155     -16.757
  C      413.051     -53.124     -14.613
  O      414.044     -53.965     -15.240
  C      413.613     -52.741     -13.240
  O      412.748     -52.328     -12.204
  C      414.561     -53.877     -12.870
  O      413.958     -54.828     -11.989
  C      414.883     -54.527     -14.219
  N      419.696     -55.844     -13.314
  C      418.530     -56.433     -12.859
  N      418.681     -57.372     -11.893
  N      417.341     -56.116     -13.293
  C      417.347     -55.094     -14.184
  C      418.434     -54.445     -14.718
  C      419.745     -54.833     -14.260
  O      420.796     -54.279     -14.575
  N      418.059     -53.412     -15.538
  C      416.741     -53.411     -15.473
  N      416.267     -54.387     -14.634
  O      410.103     -52.558     -18.189
  O      410.085     -52.515     -15.685
  H      413.163     -55.184     -12.428
  H      409.717     -53.389     -15.919
  H      420.581     -56.078     -12.879
  H      416.093     -52.705     -15.981
  H      414.666     -55.603     -14.190
  H      415.443     -53.491     -12.347
  H      419.565     -57.536     -11.435
  H      414.267     -51.873     -13.399
  H      417.848     -57.700     -11.422
  H      412.142     -53.725     -14.564
  H      412.133     -51.183     -14.975
  H      413.787     -51.335     -15.562
  P      412.954     -51.070     -11.239
  C      411.404     -49.580     -12.624
  O      412.707     -49.735     -12.086
  O      414.534     -51.032     -10.968
  O      412.209     -51.140      -9.944
  H      414.714     -50.544     -10.144
  H      411.431     -48.825     -13.413
  H      410.718     -49.249     -11.839
  H      411.040     -50.523     -13.049
  H      410.563     -48.387     -17.393
  H      410.419     -49.544     -18.695
  H      411.935     -49.370     -17.844

 3  4  5  6  7  8  9  10  11  12  23  26  30  31 0
 6-311+G(2d,p)
 ****
 33  35  36  37  38 0
 6-311+G(2d,p)
 ****
 1  2  13  14  15  16  17  18  19  20  21  22  24  25 0
 3-21G
 ****
 27  28  29  32  34  39  40  41  42  43  44  45  46  47  48  49 0
 3-21G
 ****


