%nproc=1
%NoSave
%Mem=1900MB
#P OB98/GEN NMR

erre ene a

0 1
  C      207.768    -183.173     -35.301
  O      206.976    -183.962     -36.166
  H      208.808    -183.219     -35.633
  H      207.704    -183.558     -34.279
  H      207.434    -182.132     -35.326
  P      205.399    -183.992     -35.866
  C      204.717    -184.065     -38.381
  O      204.726    -184.726     -37.124
  C      203.830    -184.829     -39.376
  O      204.366    -186.173     -39.537
  C      202.370    -184.982     -38.908
  O      201.523    -185.033     -40.068
  C      202.396    -186.350     -38.246
  O      201.091    -186.846     -38.087
  C      203.295    -187.092     -39.231
  N      203.236    -192.173     -39.705
  C      202.676    -191.189     -40.446
  N      202.747    -189.857     -40.256
  C      203.516    -189.568     -39.188
  C      204.149    -190.458     -38.340
  C      203.980    -191.823     -38.625
  N      204.530    -192.828     -37.863
  N      204.819    -189.779     -37.338
  C      204.601    -188.503     -37.587
  N      203.819    -188.328     -38.696
  O      204.967    -182.461     -36.040
  O      205.004    -184.538     -34.535
  H      200.614    -186.862     -38.941
  H      204.999    -182.004     -35.179
  H      202.090    -191.520     -41.301
  H      204.970    -187.670     -37.000
  H      202.775    -187.330     -40.168
  H      202.856    -186.298     -37.254
  H      202.039    -184.177     -38.248
  H      203.889    -184.343     -40.359
  H      205.746    -184.017     -38.759
  H      204.330    -183.050     -38.257
  H      204.340    -193.782     -38.122
  H      205.059    -192.584     -37.039
  P      200.082    -184.319     -40.018
  C      200.291    -183.156     -42.345
  O      199.550    -184.027     -41.506
  O      200.458    -182.848     -39.500
  O      199.084    -184.947     -39.104
  H      199.840    -182.581     -38.794
  H      199.802    -183.072     -43.293
  H      201.276    -183.549     -42.486
  H      200.354    -182.190     -41.889

 6  7  8  9  10  11  12  13  14  15  25  28  32  33  34  35 0
 6-311+G(2d,p)
 ****
 36  37  40 0
 6-311+G(2d,p)
 ****
 1  2  3  4  5  16  17  18  19  20  21  22  23  24 0
 3-21G
 ****
 26  27  29  30  31  38  39 41  42  43  44  45  46  47  48 0
 3-21G
 ****


