%nproc=1
%NoSave
%Mem=1900MB
#P OB98/GEN NMR

erre ene a

0 1
  C      -14.591     -74.618      76.899
  O      -13.926     -74.987      75.684
  P      -12.446     -74.494      75.305
  C      -10.684     -76.149      76.202
  O      -11.496     -75.772      75.099
  C       -9.987     -77.494      75.965
  O      -10.967     -78.506      75.579
  C       -8.905     -77.464      74.870
  O       -7.840     -78.306      75.324
  C       -9.638     -78.079      73.687
  O       -8.777     -78.554      72.669
  C      -10.435     -79.167      74.412
  N      -11.505     -79.783      73.634
  C      -11.150     -80.470      72.466
  O       -9.986     -80.506      72.072
  N      -12.140     -81.094      71.746
  C      -13.372     -81.035      72.144
  N      -14.299     -81.683      71.389
  C      -13.793     -80.309      73.354
  C      -12.819     -79.715      74.043
  O      -11.887     -73.489      76.259
  O      -12.568     -73.868      73.837
  H      -11.964     -73.105      73.762
  H       -9.302     -79.117      72.070
  H      -14.830     -80.290      73.655
  H      -13.043     -79.185      74.963
  H       -9.749     -79.943      74.768
  H      -10.289     -77.319      73.245
  H       -8.506     -76.463      74.676
  H       -9.556     -77.824      76.918
  H      -13.970     -82.180      70.570
  H      -11.322     -76.235      77.089
  H      -15.284     -81.709      71.610
  H       -9.944     -75.363      76.388
  P       -6.324     -77.796      75.212
  C       -5.976     -76.361      77.358
  O       -5.768     -77.595      76.702
  O       -6.522     -76.278      74.729
  O       -5.448     -78.532      74.250
  H       -5.724     -75.988      74.250
  H       -6.297     -76.560      78.384
  H       -6.737     -75.752      76.866
  H       -5.034     -75.807      77.382
  H      -15.562     -75.067      76.925
  H      -14.689     -73.553      76.943
  H      -14.018     -74.958      77.736

 3  4  5  6  7  8  9  10  11  12  13  24  27  28  29  30  32 0
 6-311+G(2d,p)
 ****
 34  35 0
 6-311+G(2d,p)
 ****
 1  2  14  15  16  17  18  19  20  21  22  23  25  26 0
 3-21G
 ****
 31  33  36  37  38  39  40  41  42  43  44  45  46 0
 3-21G
 ****


