%nproc=1
%NoSave
%Mem=1900MB
#P OB98/GEN NMR

erre ene a

0 1
  C      197.981    -126.684       2.082
  O      197.636    -127.576       3.127
  P      197.308    -129.094       2.722
  C      195.445    -129.984       1.140
  O      195.796    -129.088       2.191
  C      194.039    -129.682       0.632
  O      194.022    -128.416      -0.051
  C      193.513    -130.695      -0.370
  O      193.083    -131.870       0.288
  C      192.387    -129.909      -1.030
  O      191.165    -130.032      -0.285
  C      192.919    -128.457      -0.983
  N      193.309    -127.963      -2.293
  C      192.274    -127.455      -3.087
  O      191.115    -127.465      -2.670
  N      192.575    -126.990      -4.343
  C      193.800    -127.031      -4.767
  N      194.041    -126.550      -6.017
  C      194.916    -127.576      -3.970
  C      194.602    -128.026      -2.755
  O      197.206    -129.833       4.136
  O      198.312    -129.731       1.819
  H      190.658    -129.215      -0.473
  H      197.417    -130.782       4.048
  H      195.919    -127.588      -4.370
  H      195.360    -128.444      -2.104
  H      192.150    -127.783      -0.582
  H      192.179    -130.267      -2.042
  H      194.282    -130.936      -1.115
  H      193.368    -129.613       1.499
  H      193.254    -126.190      -6.542
  H      195.472    -131.011       1.517
  H      194.963    -126.519      -6.430
  H      196.179    -129.888       0.334
  P      192.792    -133.164      -0.610
  C      191.267    -133.515      -2.641
  O      191.469    -132.801      -1.438
  O      192.237    -134.208       0.471
  O      193.934    -133.719      -1.394
  H      192.113    -135.082       0.056
  H      190.267    -133.289      -3.019
  H      191.344    -134.591      -2.467
  H      192.004    -133.204      -3.387
  H      198.173    -125.714       2.490
  H      197.173    -126.624       1.383
  H      198.858    -127.041       1.583

 3  4  5  6  7  8  9  10  11  12  13  21  23  27  28  29  30  32 0
 6-311+G(2d,p)
 ****
 34  35 0
 6-311+G(2d,p)
 ****
 1  2  14  15  16  17  18  19  20  22  24  25  26 0
 3-21G
 ****
 31  33  36  37  38  39  40  41  42  43  44  45  46 0
 3-21G
 ****


