%nproc=1
%NoSave
%Mem=1900MB
#P OB98/GEN NMR

erre ene a

0 1
  C     -791.405     569.630    -599.804
  O     -792.471     568.726    -599.996
  P     -793.521     568.945    -601.199
  C     -793.065     566.742    -602.454
  O     -793.997     567.476    -601.663
  C     -793.066     565.270    -602.032
  O     -792.598     565.126    -600.659
  C     -794.451     564.635    -602.018
  O     -795.107     564.481    -603.255
  C     -794.181     563.374    -601.213
  O     -793.610     562.354    -602.025
  C     -793.167     563.891    -600.162
  N     -793.777     564.056    -598.852
  C     -794.190     562.892    -598.222
  O     -794.099     561.775    -598.711
  N     -794.798     563.059    -596.993
  C     -795.052     564.258    -596.400
  O     -795.624     564.334    -595.315
  C     -794.585     565.447    -597.105
  C     -793.977     565.305    -598.281
  O     -793.029     569.816    -602.306
  O     -794.822     569.502    -600.447
  H     -794.200     562.236    -602.797
  H     -795.189     568.899    -599.776
  H     -795.135     562.229    -596.534
  H     -794.740     566.410    -596.630
  H     -793.631     566.172    -598.834
  H     -792.336     563.179    -600.077
  H     -795.111     562.965    -600.790
  H     -795.107     565.268    -601.411
  H     -792.372     564.728    -602.669
  H     -792.062     567.157    -602.312
  H     -793.321     566.858    -603.514
  P     -796.649     564.843    -603.495
  C     -796.385     567.322    -604.185
  O     -796.731     566.012    -604.587
  O     -797.504     564.969    -602.277
  O     -797.140     563.575    -604.357
  H     -798.094     563.396    -604.135
  H     -796.549     568.009    -605.029
  H     -795.328     567.374    -603.894
  H     -797.011     567.672    -603.355
  H     -790.821     569.320    -598.963
  H     -791.796     570.610    -599.625
  H     -790.789     569.646    -600.679

 3  4  5  6  7  8  9  10  11  12  13  23  28  29  30  31  32 0
 6-311+G(2d,p)
 ****
 33  34 0
 6-311+G(2d,p)
 ****
 1  2  14  15  16  17  18  19  20  21  22  24  25  26  27 0
 3-21G
 ****
 35  36  37  38  39  40  41  42  43  44  45 0
 3-21G
 ****


