%nproc=1
%NoSave
%Mem=1900MB
#P OB98/GEN NMR

erre ene a

0 1
  C       -3.381      -8.995     -30.212
  O       -4.392      -8.248     -30.851
  H       -3.745     -10.014     -30.056
  H       -3.154      -8.550     -29.240
  H       -2.472      -9.036     -30.818
  P       -3.994      -6.886     -31.588
  C       -5.047      -5.369     -29.786
  O       -3.857      -5.744     -30.467
  C       -4.791      -4.274     -28.750
  O       -3.912      -4.763     -27.714
  C       -4.095      -3.054     -29.354
  O       -4.951      -2.115     -29.977
  C       -3.414      -2.447     -28.131
  O       -4.316      -1.585     -27.417
  C       -3.069      -3.678     -27.289
  N        1.786      -2.603     -26.120
  C        0.646      -1.868     -25.860
  N        0.832      -0.669     -25.265
  N       -0.557      -2.269     -26.174
  C       -0.580      -3.442     -26.849
  C        0.484      -4.253     -27.177
  C        1.808      -3.825     -26.776
  O        2.851      -4.436     -26.988
  N        0.072      -5.370     -27.863
  C       -1.225      -5.197     -28.014
  N       -1.672      -4.055     -27.393
  O       -5.341      -6.462     -32.349
  O       -2.845      -6.986     -32.544
  H       -5.075      -2.117     -27.117
  H       -5.126      -5.917     -33.127
  H        2.684      -2.258     -25.831
  H       -1.888      -5.878     -28.538
  H       -3.279      -3.508     -26.226
  H       -2.550      -1.838     -28.410
  H        1.744      -0.268     -25.112
  H       -3.318      -3.369     -30.058
  H        0.065       0.005     -25.300
  H       -5.739      -4.003     -28.270
  H       -5.424      -6.268     -29.293
  H       -5.809      -5.048     -30.501
  P       -4.547      -1.474     -31.387
  C       -3.708       0.740     -30.307
  O       -3.405      -0.388     -31.098
  O       -5.829      -0.591     -31.756
  O       -4.226      -2.461     -32.457
  H       -6.419      -1.087     -32.354
  H       -2.838       1.356     -30.216
  H       -4.022       0.420     -29.335
  H       -4.494       1.299     -30.770

 6  7  8  9  10  11  12  13  14  15  26  29  33  34 0
 6-311+G(2d,p)
 ****
 36  38  39  40  41 0
 6-311+G(2d,p)
 ****
 1  2  3  4  5  16  17  18  19  20  21  22  23  24  25 0
 3-21G
 ****
 27  28  30  31  32  35  37  42  43  44  45  46  47 0
 3-21G
 ****
 48  49 0
 3-21G
 ****


