%nproc=1
%NoSave
%Mem=1900MB
#P OB98/GEN NMR

erre ene a

0 1
  C      212.917    -210.495     386.754
  O      211.873    -209.525     386.875
  P      211.465    -208.724     385.547
  C      213.130    -206.790     385.103
  O      212.806    -208.152     384.867
  C      213.930    -206.198     383.933
  O      213.230    -206.392     382.672
  C      214.191    -204.692     384.068
  O      215.470    -204.420     383.478
  C      213.112    -204.080     383.195
  O      213.436    -202.741     382.819
  C      213.067    -205.100     382.058
  N      210.470    -202.459     378.545
  C      211.692    -202.274     379.092
  N      212.303    -203.015     380.045
  C      211.533    -204.062     380.397
  C      210.266    -204.368     379.934
  C      209.724    -203.508     378.963
  N      208.468    -203.675     378.422
  N      209.779    -205.493     380.567
  C      210.737    -205.853     381.400
  N      211.828    -205.036     381.309
  O      210.745    -207.413     386.119
  O      210.564    -209.487     384.633
  H      212.678    -202.374     382.323
  H      209.784    -207.466     385.962
  H      212.250    -201.420     378.722
  H      210.686    -206.683     382.089
  H      213.887    -204.953     381.339
  H      212.158    -204.063     383.743
  H      214.169    -204.313     385.094
  H      214.885    -206.731     383.863
  H      213.719    -206.696     386.020
  H      208.145    -202.996     377.755
  H      207.884    -204.427     378.760
  H      212.208    -206.227     385.275
  P      216.678    -204.138     384.492
  C      216.665    -201.594     385.001
  O      216.233    -202.888     385.384
  O      217.827    -203.542     383.545
  O      217.140    -205.343     385.240
  H      218.704    -203.705     383.938
  H      215.842    -200.888     385.151
  H      216.977    -201.551     383.956
  H      217.504    -201.297     385.635
  H      213.090    -210.954     387.705
  H      213.813    -210.015     386.421
  H      212.629    -211.243     386.045

 3  4  5  6  7  8  9  10  11  12  22  25  29  30  31  32 0
 6-311+G(2d,p)
 ****
 33  36  37 0
 6-311+G(2d,p)
 ****
 1  2  13  14  15  16  17  18  19  20  21  23  24  26 0
 3-21G
 ****
 27  28  34  35  38  39  40  41  42  43  44  45  46  47  48 0
 3-21G
 ****


