%nproc=1
%NoSave
%Mem=1900MB
#P OB98/GEN NMR

erre ene a

0 1
  C      421.117     838.674     105.920
  O      421.107     839.785     106.789
  H      420.588     837.843     106.399
  H      422.151     838.367     105.720
  H      420.612     838.919     104.976
  P      421.671     841.166     106.208
  C      423.330     842.491     107.754
  O      422.004     842.074     107.488
  C      423.406     843.277     109.066
  O      422.442     844.364     109.007
  C      423.075     842.444     110.304
  O      423.897     842.900     111.388
  C      421.621     842.782     110.591
  O      421.273     842.547     111.957
  C      421.573     844.257     110.152
  N      420.213     844.695     109.842
  C      419.326     844.804     110.922
  O      419.698     844.520     112.060
  N      418.024     845.182     110.674
  C      417.631     845.378     109.455
  N      416.329     845.719     109.275
  C      418.521     845.219     108.281
  C      419.776     844.886     108.555
  O      420.347     841.840     105.606
  O      422.789     841.012     105.225
  H      420.314     842.692     112.063
  H      419.577     841.772     106.195
  H      418.140     845.381     107.278
  H      420.511     844.763     107.747
  H      421.973     844.910     110.947
  H      420.960     842.175     109.975
  H      423.244     841.373     110.160
  H      424.392     843.730     109.143
  H      415.750     845.791     110.108
  H      423.713     843.112     106.936
  H      415.892     845.840     108.370
  H      423.965     841.587     107.819
  P      424.605     841.830     112.355
  C      424.208     842.889     114.696
  O      425.155     842.592     113.663
  O      425.572     840.909     111.701
  O      423.346     841.014     112.940
  H      423.599     840.072     112.979
  H      424.703     843.392     115.500
  H      423.776     841.979     115.057
  H      423.437     843.518     114.303

 6  7  8  9  10  11  12  13  14  15  16  26  30  31  32  33  35 0
 6-311+G(2d,p)
 ****
 37  38 0
 6-311+G(2d,p)
 ****
 1  2  3  4  5  17  18  19  20  21  22  23  24  25 0
 3-21G
 ****
 27  28  29  34  36  39  40  41  42  43  44  45  46 0
 3-21G
 ****


