%nproc=1
%NoSave
%Mem=1900MB
#P OB98/GEN NMR

erre ene a

0 1
  C       40.625    -155.253      46.044
  O       39.213    -155.235      46.086
  H       41.003    -154.546      46.788
  H       40.973    -154.937      45.058
  H       41.010    -156.248      46.278
  P       38.397    -156.284      45.193
  C       37.666    -154.616      43.365
  O       38.449    -155.760      43.675
  C       37.551    -154.433      41.848
  O       38.885    -154.293      41.296
  C       36.871    -155.606      41.137
  O       36.069    -155.104      40.068
  C       38.034    -156.401      40.577
  O       37.667    -157.164      39.430
  C       39.052    -155.301      40.280
  N       42.305    -158.349      37.901
  C       41.014    -157.990      37.568
  N       40.503    -158.538      36.444
  N       40.284    -157.169      38.276
  C       40.930    -156.680      39.363
  C       42.205    -156.958      39.800
  C       42.993    -157.886      39.017
  O       44.136    -158.252      39.271
  N       42.493    -156.279      40.957
  C       41.395    -155.595      41.220
  N       40.414    -155.813      40.289
  O       37.024    -156.606      45.694
  O       39.328    -157.583      45.159
  H       38.493    -157.552      39.068
  H       38.973    -158.283      45.737
  H       42.818    -158.995      37.327
  H       41.257    -154.935      42.066
  H       38.893    -154.838      39.300
  H       38.412    -157.092      41.341
  H       41.017    -159.159      35.838
  H       36.253    -156.197      41.812
  H       39.570    -158.267      36.160
  H       37.022    -153.494      41.651
  H       38.149    -153.739      43.805
  H       36.669    -154.730      43.806
  P       34.477    -155.033      40.255
  C       34.016    -157.354      39.252
  O       33.906    -156.527      40.403
  O       33.753    -154.177      39.271
  O       34.321    -154.451      41.743
  H       33.529    -153.880      41.776
  H       33.606    -158.319      39.466
  H       35.047    -157.456      38.983
  H       33.478    -156.910      38.441

 6  7  8  9  10  11  12  13  14  15  26  29  33  34 0
 6-311+G(2d,p)
 ****
 36  38  39  40  41 0
 6-311+G(2d,p)
 ****
 1  2  3  4  5  16  17  18  19  20  21  22  23  24  25 0
 3-21G
 ****
 27  28  30  31  32  35  37  42  43  44  45  46  47 0
 3-21G
 ****
 48  49 0
 3-21G
 ****


