%nproc=1
%NoSave
%Mem=1900MB
#P OB98/GEN NMR

erre ene a

0 1
  C       16.485      39.317     300.957
  O       17.495      38.891     300.070
  P       18.771      38.077     300.590
  C       19.105      35.873     299.299
  O       18.441      36.517     300.381
  C       19.135      34.356     299.522
  O       19.776      34.087     300.808
  C       17.727      33.728     299.553
  O       17.555      32.623     298.666
  C       17.532      33.418     301.029
  O       16.550      32.434     301.283
  C       18.963      33.100     301.472
  N       19.120      33.133     302.924
  C       19.640      31.995     303.532
  O       19.982      30.981     302.931
  N       19.708      32.023     304.897
  C       19.212      33.003     305.703
  O       19.216      32.919     306.922
  C       18.637      34.164     305.005
  C       18.638      34.189     303.670
  O       19.237      38.426     301.963
  O       19.860      38.341     299.445
  H       16.398      32.401     302.246
  H       19.601      38.042     298.557
  H       20.082      31.205     305.351
  H       18.226      34.952     305.618
  H       18.222      35.031     303.127
  H       19.283      32.121     301.113
  H       17.195      34.339     301.521
  H       16.969      34.448     299.229
  H       19.747      33.915     298.730
  H       20.129      36.246     299.241
  H       18.608      36.125     298.355
  P       16.204      32.276     297.881
  C       16.022      33.695     295.710
  O       15.738      33.586     297.089
  O       15.143      31.622     298.701
  O       16.693      31.300     296.709
  H       15.971      30.689     296.473
  H       16.116      34.755     295.456
  H       15.194      33.270     295.138
  H       16.952      33.182     295.449
  H       15.728      39.840     300.411
  H       16.908      39.968     301.693
  H       16.053      38.466     301.440

 3  4  5  6  7  8  9  10  11  12  13  23  28  29  30  31  32 0
 6-311+G(2d,p)
 ****
 33  34 0
 6-311+G(2d,p)
 ****
 1  2  14  15  16  17  18  19  20  21  22  24  25  26  27 0
 3-21G
 ****
 35  36  37  38  39  40  41  42  43  44  45 0
 3-21G
 ****


