%nproc=1
%NoSave
%Mem=1900MB
#P OB98/GEN NMR

erre ene a

0 1
  C     -175.850     -96.288     216.061
  O     -174.718     -96.997     215.597
  H     -176.347     -95.822     215.206
  H     -175.540     -95.503     216.759
  H     -176.551     -96.968     216.552
  P     -173.867     -97.795     216.699
  C     -171.814     -96.192     216.713
  O     -172.323     -97.481     216.385
  C     -170.544     -95.921     215.915
  O     -169.507     -96.836     216.332
  C     -170.693     -96.127     214.411
  O     -171.325     -95.023     213.783
  C     -169.241     -96.314     213.993
  O     -168.577     -95.054     213.811
  C     -168.638     -97.050     215.197
  N     -165.805    -100.553     212.809
  C     -165.674     -99.212     212.932
  N     -166.466     -98.351     213.604
  C     -167.479     -99.006     214.199
  C     -167.746    -100.366     214.155
  C     -166.848    -101.161     213.421
  N     -167.003    -102.517     213.266
  N     -168.902    -100.653     214.853
  C     -169.321     -99.492     215.315
  N     -168.490     -98.471     214.948
  O     -174.043     -99.323     216.250
  O     -174.286     -97.572     218.113
  H     -168.637     -94.582     214.666
  H     -174.778     -99.726     216.750
  H     -164.821     -98.775     212.417
  H     -170.218     -99.339     215.906
  H     -167.651     -96.664     215.469
  H     -169.165     -96.859     213.051
  H     -171.241     -97.056     214.209
  H     -170.205     -94.897     216.134
  H     -171.583     -96.157     217.785
  H     -172.582     -95.441     216.490
  H     -166.336    -103.021     212.704
  H     -167.836    -102.959     213.632
  P     -172.041     -95.257     212.369
  C     -170.237     -93.945     211.033
  O     -171.601     -94.055     211.399
  O     -173.578     -94.948     212.683
  O     -171.850     -96.619     211.792
  H     -174.076     -95.781     212.804
  H     -170.108     -93.100     210.389
  H     -169.932     -94.834     210.521
  H     -169.641     -93.818     211.912

 6  7  8  9  10  11  12  13  14  15  25  28  32  33  34  35 0
 6-311+G(2d,p)
 ****
 36  37  40 0
 6-311+G(2d,p)
 ****
 1  2  3  4  5  16  17  18  19  20  21  22  23  24 0
 3-21G
 ****
 26  27  29  30  31  38  39 41  42  43  44  45  46  47  48 0
 3-21G
 ****


