%nproc=1
%NoSave
%Mem=1900MB
#P OB98/GEN NMR

erre ene a

0 1
  C      -66.129     -55.595    -181.964
  O      -67.343     -55.906    -181.312
  P      -68.476     -54.821    -181.004
  C      -70.763     -56.041    -181.194
  O      -69.794     -55.221    -181.836
  C      -71.551     -56.918    -182.176
  O      -70.723     -58.015    -182.615
  C      -72.759     -57.544    -181.472
  O      -73.962     -56.814    -181.335
  C      -72.914     -58.923    -182.103
  O      -73.914     -58.948    -183.125
  C      -71.532     -59.198    -182.699
  N      -70.603     -64.182    -182.716
  C      -71.151     -63.396    -183.711
  N      -71.688     -64.059    -184.758
  N      -71.188     -62.090    -183.666
  C      -70.700     -61.577    -182.509
  C      -70.118     -62.252    -181.461
  C      -70.047     -63.691    -181.544
  O      -69.645     -64.430    -180.647
  N      -69.803     -61.411    -180.425
  C      -70.230     -60.231    -180.827
  N      -70.816     -60.289    -182.069
  O      -68.048     -53.390    -180.983
  O      -68.893     -55.222    -179.497
  H      -74.103     -59.881    -183.336
  H      -69.127     -54.398    -179.029
  H      -70.673     -65.191    -182.772
  H      -70.169     -59.316    -180.248
  H      -71.613     -59.443    -183.766
  H      -73.221     -59.661    -181.353
  H      -71.808     -65.061    -184.760
  H      -72.453     -57.743    -180.436
  H      -72.246     -63.529    -185.420
  H      -71.811     -56.361    -183.081
  H      -71.436     -55.380    -180.638
  H      -70.267     -56.684    -180.459
  P      -74.459     -56.041    -180.026
  C      -74.957     -53.962    -181.432
  O      -74.306     -54.467    -180.279
  O      -73.325     -56.337    -178.936
  O      -75.796     -56.468    -179.514
  H      -73.690     -56.219    -178.039
  H      -74.546     -52.978    -181.671
  H      -76.029     -53.862    -181.232
  H      -74.807     -54.627    -182.290
  H      -65.536     -56.481    -182.056
  H      -65.594     -54.865    -181.393
  H      -66.337     -55.203    -182.938

 3  4  5  6  7  8  9  10  11  12  23  26  30  31 0
 6-311+G(2d,p)
 ****
 33  35  36  37  38 0
 6-311+G(2d,p)
 ****
 1  2  13  14  15  16  17  18  19  20  21  22  24  25 0
 3-21G
 ****
 27  28  29  32  34  39  40  41  42  43  44  45  46  47  48  49 0
 3-21G
 ****


