%nproc=1
%NoSave
%Mem=1900MB
#P OB98/GEN NMR

erre ene a

0 1
  C     -218.520     530.818     180.669
  O     -219.595     531.183     181.513
  H     -217.906     530.072     181.185
  H     -217.895     531.684     180.438
  H     -218.902     530.376     179.746
  P     -220.478     532.459     181.101
  C     -221.599     530.921     179.362
  O     -220.963     532.175     179.593
  C     -221.982     530.762     177.889
  O     -222.440     529.417     177.626
  C     -223.123     531.660     177.440
  O     -222.824     533.035     177.436
  C     -223.563     530.985     176.149
  O     -222.750     531.363     175.036
  C     -223.333     529.491     176.489
  N     -224.586     528.782     176.742
  C     -225.494     528.759     175.688
  O     -225.294     529.311     174.604
  N     -226.666     528.100     175.933
  C     -227.034     527.522     177.111
  O     -228.113     526.961     177.269
  C     -226.047     527.612     178.200
  C     -224.886     528.229     177.967
  O     -219.814     533.791     181.284
  O     -221.821     532.287     181.953
  H     -222.836     532.330     174.939
  H     -222.341     533.128     181.976
  H     -227.332     528.056     175.175
  H     -226.307     527.173     179.152
  H     -224.138     528.308     178.759
  H     -222.820     528.987     175.659
  H     -224.595     531.225     175.892
  H     -223.952     531.537     178.151
  H     -221.082     530.927     177.283
  H     -222.505     530.888     179.976
  H     -220.931     530.109     179.670
  P     -223.893     534.173     177.104
  C     -224.716     534.358     179.579
  O     -225.046     534.127     178.215
  O     -224.298     534.319     175.677
  O     -223.083     535.509     177.521
  H     -223.361     536.220     176.907
  H     -225.601     534.290     180.177
  H     -224.290     535.334     179.683
  H     -224.009     533.624     179.904

 6  7  8  9  10  11  12  13  14  15  16  26  31  32  33  34  35 0
 6-311+G(2d,p)
 ****
 36  37 0
 6-311+G(2d,p)
 ****
 1  2  3  4  5  17  18  19  20  21  22  23  24  25 0
 3-21G
 ****
 27  28  29  30  38  39  40  41  42  43  44  45 0
 3-21G
 ****


