%nproc=1
%NoSave
%Mem=1900MB
#P OB98/GEN NMR

erre ene a

0 1
  C       76.226      83.657     154.085
  O       77.526      83.858     153.567
  H       76.197      82.688     154.590
  H       75.492      83.657     153.276
  H       75.984      84.441     154.807
  P       77.747      85.185     152.685
  C       79.326      83.907     151.046
  O       78.105      84.610     151.227
  C       79.147      82.808     150.003
  O       78.004      81.985     150.320
  C       78.896      83.317     148.584
  O       80.069      83.770     147.931
  C       78.349      82.050     147.948
  O       79.428      81.127     147.706
  C       77.415      81.540     149.067
  N       76.042      82.036     148.938
  C       75.155      81.241     148.201
  O       75.528      80.186     147.694
  N       73.864      81.684     148.025
  C       73.484      82.806     148.555
  N       72.196      83.190     148.344
  C       74.380      83.665     149.349
  C       75.628      83.226     149.499
  O       79.158      85.739     153.199
  O       76.640      86.184     152.714
  H       79.018      80.264     147.511
  H       79.462      86.478     152.615
  H       74.022      84.599     149.760
  H       76.345      83.805     150.071
  H       77.390      80.443     149.087
  H       77.860      82.224     146.989
  H       78.115      84.086     148.567
  H       80.035      82.164     150.041
  H       71.623      82.608     147.746
  H       79.616      83.470     152.008
  H       71.850      84.110     148.585
  H       80.110      84.597     150.717
  P       80.125      85.320     147.516
  C       80.305      84.452     145.067
  O       79.736      85.400     145.964
  O       81.693      85.640     147.523
  O       79.360      86.242     148.414
  H       81.858      86.560     147.809
  H       79.948      84.640     144.076
  H       80.024      83.464     145.367
  H       81.371      84.540     145.084

 6  7  8  9  10  11  12  13  14  15  16  26  30  31  32  33  35 0
 6-311+G(2d,p)
 ****
 37  38 0
 6-311+G(2d,p)
 ****
 1  2  3  4  5  17  18  19  20  21  22  23  24  25 0
 3-21G
 ****
 27  28  29  34  36  39  40  41  42  43  44  45  46 0
 3-21G
 ****


