%nproc=1
%NoSave
%Mem=1900MB
#P OB98/GEN NMR

erre ene a

0 1
  C     -220.680     492.659    -297.795
  O     -219.307     492.494    -298.154
  P     -218.819     491.000    -298.478
  C     -216.357     491.242    -297.682
  O     -217.241     491.050    -298.778
  C     -214.907     491.096    -298.155
  O     -214.699     489.863    -298.881
  C     -214.465     492.202    -299.104
  O     -214.223     493.409    -298.402
  C     -213.220     491.571    -299.718
  O     -212.099     491.690    -298.824
  C     -213.632     490.094    -299.833
  N     -212.233     488.116    -304.342
  C     -211.546     488.353    -303.208
  N     -211.990     488.887    -302.047
  C     -213.301     489.172    -302.129
  C     -214.138     488.985    -303.219
  C     -213.552     488.429    -304.370
  N     -214.258     488.202    -305.530
  N     -215.422     489.400    -302.924
  C     -215.352     489.858    -301.688
  N     -214.094     489.727    -301.163
  O     -219.475     490.700    -299.904
  O     -219.241     490.001    -297.451
  H     -211.303     491.421    -299.326
  H     -220.200     490.057    -299.810
  H     -210.494     488.083    -303.231
  H     -216.183     490.283    -301.138
  H     -212.814     489.412    -299.579
  H     -212.929     492.029    -300.669
  H     -215.224     492.367    -299.877
  H     -214.260     491.087    -297.265
  H     -216.560     490.515    -296.895
  H     -213.749     487.873    -306.341
  H     -215.216     488.514    -305.596
  H     -216.532     492.235    -297.257
  P     -214.245     494.776    -299.244
  C     -212.122     495.914    -298.334
  O     -213.532     495.838    -298.261
  O     -215.780     495.191    -299.159
  O     -213.663     494.682    -300.614
  H     -216.133     495.097    -298.250
  H     -211.779     496.687    -297.642
  H     -211.812     496.176    -299.353
  H     -211.682     494.959    -298.042
  H     -220.877     493.693    -297.605
  H     -220.889     492.088    -296.914
  H     -221.302     492.319    -298.597

 3  4  5  6  7  8  9  10  11  12  22  25  29  30  31  32 0
 6-311+G(2d,p)
 ****
 33  36  37 0
 6-311+G(2d,p)
 ****
 1  2  13  14  15  16  17  18  19  20  21  23  24  26 0
 3-21G
 ****
 27  28  34  35  38  39  40  41  42  43  44  45  46  47  48 0
 3-21G
 ****


