%nproc=1
%NoSave
%Mem=1900MB
#P OB98/GEN NMR

erre ene a

0 1
  C      188.159    -301.642       6.579
  O      187.047    -302.131       5.819
  P      187.244    -302.274       4.235
  C      186.595    -304.136       2.528
  O      186.242    -303.405       3.696
  C      185.580    -305.253       2.273
  O      185.716    -306.306       3.249
  C      184.137    -304.790       2.384
  O      183.747    -304.098       1.218
  C      183.397    -306.109       2.600
  O      182.997    -306.700       1.352
  C      184.448    -306.986       3.318
  N      184.081    -307.295       4.691
  C      183.123    -308.296       4.856
  O      182.623    -308.853       3.875
  N      182.737    -308.631       6.131
  C      183.244    -307.992       7.147
  N      182.818    -308.366       8.386
  C      184.239    -306.910       7.009
  C      184.605    -306.614       5.768
  O      188.681    -302.964       4.104
  O      187.179    -300.974       3.498
  H      182.653    -307.582       1.578
  H      189.128    -302.655       3.294
  H      184.625    -306.400       7.882
  H      185.329    -305.827       5.572
  H      184.574    -307.936       2.782
  H      182.479    -305.958       3.183
  H      184.012    -304.148       3.272
  H      185.764    -305.675       1.275
  H      182.138    -309.110       8.441
  H      187.597    -304.558       2.633
  H      183.141    -307.933       9.242
  H      186.634    -303.439       1.676
  P      183.614    -302.510       1.298
  C      183.990    -300.860      -0.641
  O      183.315    -302.029      -0.205
  O      185.139    -302.049       1.493
  O      182.725    -301.944       2.362
  H      185.187    -301.087       1.655
  H      183.862    -300.771      -1.732
  H      185.051    -300.933      -0.415
  H      183.561    -299.979      -0.160
  H      187.891    -301.597       7.614
  H      188.423    -300.663       6.236
  H      188.993    -302.300       6.455

 3  4  5  6  7  8  9  10  11  12  13  21  23  27  28  29  30  32 0
 6-311+G(2d,p)
 ****
 34  35 0
 6-311+G(2d,p)
 ****
 1  2  14  15  16  17  18  19  20  22  24  25  26 0
 3-21G
 ****
 31  33  36  37  38  39  40  41  42  43  44  45  46 0
 3-21G
 ****


