%nproc=1
%NoSave
%Mem=1900MB
#P OB98/GEN NMR

erre ene a

0 1
  C     -218.565    -111.582     101.569
  O     -218.566    -110.188     101.330
  H     -219.063    -112.082     100.735
  H     -219.112    -111.801     102.490
  H     -217.539    -111.955     101.645
  P     -217.723    -109.280     102.351
  C     -216.929    -107.424     100.671
  O     -216.604    -108.553     101.461
  C     -217.071    -107.819      99.200
  O     -218.151    -108.778      99.078
  C     -217.386    -106.641      98.275
  O     -216.729    -106.859      97.025
  C     -218.889    -106.745      98.077
  O     -219.318    -106.103      96.880
  C     -219.091    -108.268      98.111
  N     -220.464    -108.640      98.445
  C     -221.332    -108.868      97.374
  O     -220.934    -108.740      96.215
  N     -222.638    -109.194      97.634
  C     -223.061    -109.225      98.859
  N     -224.372    -109.529      99.051
  C     -222.192    -108.948     100.020
  C     -220.918    -108.674      99.744
  O     -216.902    -110.383     103.169
  O     -218.551    -108.373     103.198
  H     -220.294    -106.192      96.810
  H     -216.514    -111.073     102.606
  H     -222.593    -108.974     101.022
  H     -220.208    -108.467     100.535
  H     -218.842    -108.711      97.138
  H     -219.412    -106.274      98.917
  H     -217.078    -105.681      98.693
  H     -216.154    -108.331      98.887
  H     -224.937    -109.689      98.226
  H     -216.155    -106.656     100.768
  H     -224.822    -109.527      99.954
  H     -217.870    -107.008     101.045
  P     -215.229    -106.343      96.822
  C     -213.770    -108.411      96.291
  O     -214.205    -107.487      97.282
  O     -214.936    -104.978      97.350
  O     -215.064    -106.363      95.222
  H     -214.570    -105.560      94.963
  H     -213.095    -109.115      96.731
  H     -213.272    -107.883      95.505
  H     -214.616    -108.930      95.892

 6  7  8  9  10  11  12  13  14  15  16  26  30  31  32  33  35 0
 6-311+G(2d,p)
 ****
 37  38 0
 6-311+G(2d,p)
 ****
 1  2  3  4  5  17  18  19  20  21  22  23  24  25 0
 3-21G
 ****
 27  28  29  34  36  39  40  41  42  43  44  45  46 0
 3-21G
 ****


