%nproc=1
%NoSave
%Mem=1900MB
#P OB98/GEN NMR

erre ene a

0 1
  C     -118.973     -34.194    -607.723
  O     -119.113     -35.526    -607.277
  H     -119.907     -33.885    -608.211
  H     -118.162     -34.120    -608.452
  H     -118.779     -33.521    -606.880
  P     -117.949     -36.168    -606.391
  C     -119.278     -37.527    -604.634
  O     -118.498     -37.571    -605.831
  C     -119.795     -38.923    -604.298
  O     -120.748     -39.352    -605.309
  C     -118.704     -40.000    -604.293
  O     -117.924     -39.918    -603.117
  C     -119.551     -41.254    -604.411
  O     -120.088     -41.648    -603.142
  C     -120.680     -40.795    -605.358
  N     -120.476     -41.262    -606.725
  C     -120.398     -42.639    -606.915
  O     -120.518     -43.450    -605.987
  N     -120.128     -43.067    -608.193
  C     -119.798     -42.250    -609.242
  O     -119.317     -42.684    -610.287
  C     -119.939     -40.811    -609.012
  C     -120.257     -40.382    -607.784
  O     -117.357     -35.264    -605.348
  O     -116.849     -36.616    -607.462
  H     -116.126     -35.962    -607.473
  H     -119.333     -41.658    -602.522
  H     -120.036     -44.065    -608.313
  H     -119.751     -40.143    -609.835
  H     -120.346     -39.318    -607.575
  H     -121.655     -41.169    -605.011
  H     -118.972     -42.089    -604.802
  H     -118.078     -39.899    -605.180
  H     -120.315     -38.876    -603.331
  H     -120.126     -36.852    -604.794
  H     -118.661     -37.134    -603.818
  P     -116.324     -40.089    -603.208
  C     -116.010     -38.406    -601.286
  O     -115.691     -39.704    -601.783
  O     -115.680     -39.422    -604.384
  O     -116.119     -41.675    -603.275
  H     -115.510     -41.893    -604.021
  H     -115.537     -38.261    -600.337
  H     -117.070     -38.318    -601.173
  H     -115.662     -37.665    -601.975

 6  7  8  9  10  11  12  13  14  15  16  27  31  32  33  34  35 0
 6-311+G(2d,p)
 ****
 36  37 0
 6-311+G(2d,p)
 ****
 1  2  3  4  5  17  18  19  20  21  22  23  24  25 0
 3-21G
 ****
 26  28  29  30  38  39  40  41  42  43  44  45 0
 3-21G
 ****


