%nproc=1
%NoSave
%Mem=1900MB
#P OB98/GEN NMR

erre ene a

0 1
  C     -132.806     264.923    -304.842
  O     -132.299     265.981    -305.629
  H     -133.035     264.078    -305.497
  H     -133.720     265.233    -304.333
  H     -132.058     264.610    -304.109
  P     -132.004     267.364    -304.865
  C     -132.195     268.950    -306.927
  O     -131.344     268.288    -306.003
  C     -131.369     269.543    -308.064
  O     -130.438     270.527    -307.557
  C     -130.514     268.532    -308.821
  O     -131.251     267.749    -309.742
  C     -129.555     269.476    -309.523
  O     -130.227     270.121    -310.620
  C     -129.246     270.478    -308.390
  N     -128.078     270.100    -307.591
  C     -126.826     270.487    -308.087
  O     -126.736     271.111    -309.144
  N     -125.699     270.126    -307.392
  C     -125.807     269.457    -306.287
  N     -124.656     269.126    -305.642
  C     -127.101     269.039    -305.720
  C     -128.183     269.389    -306.414
  O     -130.753     267.012    -303.931
  O     -133.159     267.976    -304.150
  H     -129.587     270.744    -311.011
  H     -130.395     267.837    -303.522
  H     -127.143     268.470    -304.801
  H     -129.171     269.120    -306.061
  H     -129.085     271.486    -308.788
  H     -128.679     268.976    -309.938
  H     -129.943     267.895    -308.135
  H     -132.058     270.065    -308.739
  H     -123.781     269.374    -306.087
  H     -132.728     269.744    -306.394
  H     -124.626     268.483    -304.862
  H     -132.924     268.245    -307.338
  P     -130.751     266.244    -309.993
  C     -132.025     266.077    -312.258
  O     -131.831     265.548    -310.952
  O     -131.000     265.536    -308.583
  O     -129.327     266.119    -310.437
  H     -130.317     264.862    -308.402
  H     -132.773     265.505    -312.767
  H     -131.106     266.027    -312.803
  H     -132.342     267.096    -312.186

 6  7  8  9  10  11  12  13  14  15  16  26  30  31  32  33  35 0
 6-311+G(2d,p)
 ****
 37  38 0
 6-311+G(2d,p)
 ****
 1  2  3  4  5  17  18  19  20  21  22  23  24  25 0
 3-21G
 ****
 27  28  29  34  36  39  40  41  42  43  44  45  46 0
 3-21G
 ****


