%nproc=1
%NoSave
%Mem=1900MB
#P OB98/GEN NMR

erre ene a

0 1
  C       73.436     389.529     671.450
  O       74.082     388.995     672.598
  P       73.432     387.690     673.280
  C       75.749     386.533     673.078
  O       74.664     386.890     673.925
  C       76.997     386.221     673.902
  O       77.514     387.433     674.492
  C       76.762     385.261     675.063
  O       76.761     383.909     674.649
  C       77.980     385.556     675.920
  O       79.133     384.880     675.387
  C       78.140     387.072     675.759
  N       78.968     390.447     679.508
  C       79.809     389.816     678.656
  N       79.514     388.922     677.687
  C       78.194     388.661     677.677
  C       77.217     389.196     678.505
  C       77.648     390.142     679.453
  N       76.787     390.802     680.301
  N       75.979     388.687     678.192
  C       76.195     387.872     677.180
  N       77.517     387.828     676.829
  O       73.029     386.792     672.015
  O       72.272     387.954     674.176
  H       79.146     383.986     675.783
  H       72.321     386.166     672.267
  H       80.859     390.077     678.760
  H       75.433     387.302     676.674
  H       79.182     387.382     675.695
  H       77.863     385.215     676.955
  H       75.852     385.525     675.614
  H       77.762     385.825     673.214
  H       75.968     387.370     672.404
  H       77.146     391.586     680.815
  H       75.794     390.720     680.121
  H       75.462     385.665     672.477
  P       75.573     382.984     675.200
  C       73.534     383.509     673.678
  O       74.649     382.671     673.929
  O       74.702     383.994     676.082
  O       76.041     381.801     675.988
  H       74.212     383.519     676.770
  H       73.214     383.367     672.645
  H       73.788     384.564     673.819
  H       72.716     383.239     674.346
  H       73.973     390.388     671.106
  H       72.436     389.812     671.703
  H       73.413     388.789     670.677

 3  4  5  6  7  8  9  10  11  12  22  25  29  30  31  32 0
 6-311+G(2d,p)
 ****
 33  36  37 0
 6-311+G(2d,p)
 ****
 1  2  13  14  15  16  17  18  19  20  21  23  24  26 0
 3-21G
 ****
 27  28  34  35  38  39  40  41  42  43  44  45  46  47  48 0
 3-21G
 ****


