%nproc=1
%NoSave
%Mem=1900MB
#P OB98/GEN NMR

erre ene a

0 1
  C       45.145      79.733      88.937
  O       45.597      79.761      87.597
  H       44.165      79.252      88.967
  H       45.050      80.752      89.323
  H       45.839      79.162      89.559
  P       47.038      80.414      87.338
  C       45.959      82.750      86.967
  O       46.901      81.971      87.694
  C       45.965      84.183      87.490
  O       45.571      84.197      88.882
  C       47.333      84.849      87.449
  O       47.675      85.305      86.154
  C       47.144      85.970      88.458
  O       46.508      87.108      87.862
  C       46.220      85.331      89.501
  N       48.345      86.928      93.858
  C       47.615      87.571      92.922
  N       47.073      87.070      91.792
  C       47.324      85.753      91.690
  C       48.049      84.964      92.566
  C       48.574      85.603      93.701
  N       49.338      84.955      94.642
  N       48.125      83.666      92.101
  C       47.451      83.670      90.969
  N       46.946      84.907      90.682
  O       47.161      80.397      85.743
  O       48.179      79.709      87.991
  H       46.471      87.795      88.556
  H       47.711      79.640      85.467
  H       47.453      88.631      93.098
  H       47.308      82.811      90.324
  H       45.432      86.016      89.833
  H       48.102      86.298      88.860
  H       48.099      84.160      87.829
  H       45.230      84.767      86.921
  H       44.959      82.323      87.095
  H       46.224      82.725      85.905
  H       49.739      85.490      95.395
  H       49.610      83.995      94.475
  P       49.229      85.353      85.766
  C       49.491      87.691      86.890
  O       49.946      86.347      86.797
  O       49.254      86.155      84.382
  O       49.879      84.016      85.644
  H       49.954      85.796      83.803
  H       50.073      88.215      87.619
  H       48.462      87.700      87.182
  H       49.596      88.170      85.939

 6  7  8  9  10  11  12  13  14  15  25  28  32  33  34  35 0
 6-311+G(2d,p)
 ****
 36  37  40 0
 6-311+G(2d,p)
 ****
 1  2  3  4  5  16  17  18  19  20  21  22  23  24 0
 3-21G
 ****
 26  27  29  30  31  38  39 41  42  43  44  45  46  47  48 0
 3-21G
 ****


