%nproc=1
%NoSave
%Mem=1900MB
#P OB98/GEN NMR

erre ene a

0 1
  C      -30.618     397.189    -135.354
  O      -29.228     397.140    -135.080
  P      -28.299     398.264    -135.759
  C      -26.974     396.509    -137.140
  O      -26.926     397.536    -136.158
  C      -25.636     396.383    -137.879
  O      -25.331     397.647    -138.515
  C      -24.459     396.006    -136.977
  O      -23.604     395.135    -137.718
  C      -23.746     397.328    -136.759
  O      -22.370     397.135    -136.433
  C      -24.004     398.032    -138.098
  N      -23.877     399.484    -137.991
  C      -22.611     399.985    -137.678
  O      -21.686     399.215    -137.426
  N      -22.436     401.345    -137.604
  C      -23.460     402.132    -137.726
  N      -23.236     403.469    -137.645
  C      -24.835     401.634    -137.936
  C      -24.966     400.316    -138.080
  O      -27.884     399.181    -134.516
  O      -28.962     399.045    -136.846
  H      -22.322     396.539    -135.653
  H      -27.771     400.109    -134.794
  H      -25.662     402.328    -137.994
  H      -25.934     399.865    -138.260
  H      -23.299     397.676    -138.865
  H      -24.222     397.877    -135.937
  H      -24.772     395.517    -136.050
  H      -25.758     395.639    -138.677
  H      -22.289     403.784    -137.487
  H      -27.746     396.754    -137.876
  H      -23.975     404.154    -137.729
  H      -27.242     395.562    -136.664
  P      -23.930     393.562    -137.682
  C      -22.938     393.223    -135.337
  O      -22.818     392.930    -136.715
  O      -23.401     393.097    -139.125
  O      -25.341     393.137    -137.463
  H      -23.602     392.153    -139.260
  H      -22.211     392.626    -134.785
  H      -23.943     392.977    -134.979
  H      -22.729     394.283    -135.161
  H      -31.111     396.389    -134.842
  H      -30.778     397.090    -136.407
  H      -31.015     398.125    -135.019

 3  4  5  6  7  8  9  10  11  12  13  21  23  27  28  29  30  32 0
 6-311+G(2d,p)
 ****
 34  35 0
 6-311+G(2d,p)
 ****
 1  2  14  15  16  17  18  19  20  22  24  25  26 0
 3-21G
 ****
 31  33  36  37  38  39  40  41  42  43  44  45  46 0
 3-21G
 ****


