%nproc=1
%NoSave
%Mem=1900MB
#P OB98/GEN NMR

erre ene a

0 1
  C     -582.054    -403.348     153.808
  O     -580.724    -403.553     153.377
  H     -582.731    -403.572     152.978
  H     -582.202    -402.311     154.115
  H     -582.284    -404.018     154.643
  P     -579.565    -403.171     154.425
  C     -579.942    -400.654     153.838
  O     -579.033    -401.749     153.894
  C     -579.249    -399.431     153.248
  O     -578.180    -398.984     154.113
  C     -578.592    -399.667     151.888
  O     -579.517    -399.685     150.812
  C     -577.676    -398.458     151.829
  O     -578.453    -397.276     151.543
  C     -577.131    -398.432     153.274
  N     -575.887    -399.191     153.426
  C     -574.709    -398.571     153.008
  O     -574.735    -397.438     152.527
  N     -573.526    -399.260     153.101
  C     -573.509    -400.460     153.600
  N     -572.309    -401.092     153.668
  C     -574.724    -401.152     154.072
  C     -575.863    -400.465     153.956
  O     -578.369    -404.156     154.032
  O     -579.949    -403.199     155.865
  H     -577.866    -396.521     151.710
  H     -577.549    -403.906     154.524
  H     -574.660    -402.155     154.464
  H     -576.799    -400.910     154.283
  H     -576.947    -397.406     153.607
  H     -576.915    -398.534     151.055
  H     -577.980    -400.577     151.891
  H     -579.988    -398.618     153.200
  H     -571.499    -400.614     153.287
  H     -580.281    -400.440     154.858
  H     -572.213    -402.074     153.895
  H     -580.807    -400.915     153.220
  P     -579.702    -401.071     150.025
  C     -577.337    -401.143     148.934
  O     -578.741    -401.004     148.743
  O     -581.170    -400.941     149.393
  O     -579.565    -402.300     150.869
  H     -581.612    -401.810     149.367
  H     -576.840    -401.076     147.989
  H     -577.130    -402.094     149.379
  H     -576.986    -400.364     149.578

 6  7  8  9  10  11  12  13  14  15  16  26  30  31  32  33  35 0
 6-311+G(2d,p)
 ****
 37  38 0
 6-311+G(2d,p)
 ****
 1  2  3  4  5  17  18  19  20  21  22  23  24  25 0
 3-21G
 ****
 27  28  29  34  36  39  40  41  42  43  44  45  46 0
 3-21G
 ****


