%nproc=1
%NoSave
%Mem=1900MB
#P OB98/GEN NMR

erre ene a

0 1
  C     -334.939      23.463    -188.776
  O     -335.483      23.683    -187.484
  P     -335.919      25.153    -187.008
  C     -335.151      24.351    -184.689
  O     -336.164      25.020    -185.428
  C     -335.737      23.770    -183.405
  O     -336.199      24.862    -182.577
  C     -336.947      22.857    -183.578
  O     -336.635      21.506    -183.881
  C     -337.560      22.929    -182.185
  O     -336.831      22.072    -181.288
  C     -337.340      24.397    -181.811
  N     -340.701      27.743    -179.886
  C     -339.638      27.110    -179.339
  N     -338.803      26.218    -179.911
  C     -339.128      26.030    -181.202
  C     -340.177      26.604    -181.900
  C     -340.989      27.502    -181.186
  N     -342.058      28.163    -181.751
  N     -340.202      26.150    -183.204
  C     -339.177      25.328    -183.289
  N     -338.493      25.227    -182.111
  O     -337.036      25.751    -187.793
  O     -334.573      26.010    -187.090
  H     -335.883      22.262    -181.419
  H     -334.785      26.965    -187.079
  H     -339.432      27.349    -178.300
  H     -338.898      24.783    -184.184
  H     -337.095      24.530    -180.751
  H     -338.603      22.601    -182.157
  H     -337.659      23.268    -184.306
  H     -334.933      23.251    -182.861
  H     -334.375      25.081    -184.432
  H     -342.503      28.882    -181.206
  H     -342.172      28.109    -182.756
  H     -334.699      23.571    -185.306
  P     -337.350      20.853    -185.166
  C     -338.522      18.801    -184.046
  O     -337.468      19.285    -184.848
  O     -336.713      21.198    -186.466
  O     -338.858      21.373    -185.032
  H     -339.353      21.016    -184.279
  H     -338.517      17.708    -184.085
  H     -339.489      19.155    -184.412
  H     -338.383      19.114    -183.009
  H     -334.715      22.424    -188.897
  H     -334.042      24.036    -188.888
  H     -335.649      23.763    -189.518

 3  4  5  6  7  8  9  10  11  12  22  25  29  30  31  32 0
 6-311+G(2d,p)
 ****
 33  36  37 0
 6-311+G(2d,p)
 ****
 1  2  13  14  15  16  17  18  19  20  21  23  24  26 0
 3-21G
 ****
 27  28  34  35  38  39  40  41  42  43  44  45  46  47  48 0
 3-21G
 ****


