%nproc=1
%NoSave
%Mem=1900MB
#P OB98/GEN NMR

erre ene a

0 1
  C     -289.553      36.008     -41.413
  O     -288.339      35.543     -40.855
  H     -290.382      35.604     -40.829
  H     -289.659      35.676     -42.448
  H     -289.591      37.100     -41.367
  P     -286.987      35.766     -41.693
  C     -287.419      33.479     -42.806
  O     -287.152      34.862     -43.014
  C     -286.783      32.620     -43.896
  O     -287.494      32.767     -45.146
  C     -285.344      32.993     -44.222
  O     -284.420      32.744     -43.188
  C     -285.145      32.325     -45.575
  O     -284.820      30.941     -45.456
  C     -286.550      32.488     -46.205
  N     -286.576      33.519     -47.240
  C     -285.880      33.230     -48.406
  O     -285.246      32.188     -48.581
  N     -285.904      34.206     -49.368
  C     -286.506      35.426     -49.261
  O     -286.472      36.261     -50.154
  C     -287.195      35.686     -47.985
  C     -287.205      34.738     -47.048
  O     -285.711      35.518     -40.944
  O     -287.125      37.257     -42.254
  H     -285.148      30.504     -46.265
  H     -286.254      37.599     -42.578
  H     -285.418      34.007     -50.230
  H     -287.672      36.650     -47.862
  H     -287.710      34.907     -46.099
  H     -286.872      31.544     -46.665
  H     -284.346      32.796     -46.154
  H     -285.303      34.076     -44.404
  H     -286.861      31.569     -43.595
  H     -288.508      33.342     -42.830
  H     -287.046      33.179     -41.822
  P     -283.088      33.589     -42.962
  C     -281.481      32.129     -44.422
  O     -282.132      33.381     -44.236
  O     -282.472      33.527     -41.606
  O     -283.618      35.103     -43.188
  H     -283.103      35.677     -42.589
  H     -280.888      32.164     -45.312
  H     -282.215      31.355     -44.512
  H     -280.850      31.927     -43.582

 6  7  8  9  10  11  12  13  14  15  16  26  31  32  33  34  35 0
 6-311+G(2d,p)
 ****
 36  37 0
 6-311+G(2d,p)
 ****
 1  2  3  4  5  17  18  19  20  21  22  23  24  25 0
 3-21G
 ****
 27  28  29  30  38  39  40  41  42  43  44  45 0
 3-21G
 ****


