%nproc=1
%NoSave
%Mem=1900MB
#P OB98/GEN NMR

erre ene a

0 1
  C      -86.745     590.552     175.076
  O      -87.279     589.395     175.688
  H      -86.185     591.121     175.821
  H      -87.558     591.177     174.692
  H      -86.066     590.283     174.262
  P      -87.849     588.257     174.710
  C      -90.301     589.108     174.856
  O      -89.172     588.863     174.027
  C      -91.587     589.005     174.042
  O      -92.744     589.118     174.908
  C      -91.744     590.083     172.975
  O      -91.052     589.739     171.780
  C      -93.249     590.049     172.757
  O      -93.599     588.901     171.946
  C      -93.770     589.852     174.191
  N      -96.238     594.284     174.031
  C      -96.130     593.292     173.074
  N      -96.767     593.519     171.897
  N      -95.459     592.182     173.238
  C      -94.856     592.103     174.454
  C      -94.884     593.023     175.478
  C      -95.640     594.237     175.287
  O      -95.775     595.140     176.104
  N      -94.151     592.587     176.560
  C      -93.665     591.431     176.175
  N      -94.058     591.088     174.901
  O      -88.418     587.161     175.736
  O      -86.849     587.659     173.781
  H      -94.540     588.706     172.130
  H      -87.784     586.420     175.794
  H      -96.764     595.121     173.843
  H      -93.028     590.793     176.780
  H      -94.686     589.249     174.220
  H      -93.626     590.932     172.235
  H      -97.283     594.360     171.697
  H      -91.449     591.069     173.348
  H      -96.702     592.802     171.184
  H      -91.618     588.003     173.593
  H      -90.218     590.113     175.280
  H      -90.308     588.373     175.667
  P      -90.319     590.913     170.969
  C      -92.307     590.957     169.292
  O      -91.461     591.708     170.161
  O      -89.541     590.111     169.820
  O      -89.390     591.764     171.760
  H      -88.573     590.166     169.970
  H      -93.012     591.613     168.826
  H      -92.830     590.214     169.858
  H      -91.713     590.480     168.540

 6  7  8  9  10  11  12  13  14  15  26  29  33  34 0
 6-311+G(2d,p)
 ****
 36  38  39  40  41 0
 6-311+G(2d,p)
 ****
 1  2  3  4  5  16  17  18  19  20  21  22  23  24  25 0
 3-21G
 ****
 27  28  30  31  32  35  37  42  43  44  45  46  47 0
 3-21G
 ****
 48  49 0
 3-21G
 ****


