%nproc=1
%NoSave
%Mem=1900MB
#P OB98/GEN NMR

erre ene a

0 1
  C     -388.190    -891.060     129.148
  O     -386.896    -891.210     128.589
  H     -388.084    -890.620     130.154
  H     -388.672    -892.030     129.251
  H     -388.796    -890.390     128.534
  P     -386.820    -891.770     127.081
  C     -387.130    -894.230     127.835
  O     -386.300    -893.280     127.180
  C     -386.420    -895.570     127.984
  O     -386.286    -896.180     126.661
  C     -384.999    -895.470     128.584
  O     -384.796    -896.640     129.385
  C     -384.093    -895.560     127.366
  O     -382.783    -895.980     127.695
  C     -384.894    -896.550     126.513
  N     -381.485    -898.360     123.278
  C     -381.675    -898.610     124.619
  N     -380.812    -899.490     125.208
  N     -382.609    -898.070     125.352
  C     -383.430    -897.240     124.622
  C     -383.349    -896.900     123.297
  C     -382.277    -897.520     122.517
  O     -382.058    -897.290     121.332
  N     -384.327    -896.000     122.962
  C     -385.006    -895.810     124.087
  N     -384.482    -896.540     125.117
  O     -385.571    -890.970     126.482
  O     -388.056    -891.560     126.267
  H     -382.314    -896.150     126.852
  H     -385.865    -890.160     126.028
  H     -380.739    -898.800     122.761
  H     -385.848    -895.150     124.188
  H     -384.787    -897.590     126.870
  H     -384.040    -894.580     126.870
  H     -380.100    -900.000     124.702
  H     -384.829    -894.580     129.187
  H     -380.966    -899.730     126.181
  H     -387.063    -896.260     128.568
  H     -388.045    -894.360     127.241
  H     -387.401    -893.850     128.831
  P     -385.013    -896.530     130.969
  C     -382.458    -896.610     131.482
  O     -383.753    -897.180     131.698
  O     -386.190    -897.610     131.258
  O     -385.405    -895.160     131.435
  H     -386.693    -897.350     132.035
  H     -381.729    -897.160     132.039
  H     -382.459    -895.590     131.805
  H     -382.218    -896.654     130.440

 6  7  8  9  10  11  12  13  14  15  26  29  33  34 0
 6-311+G(2d,p)
 ****
 36  38  39  40  41 0
 6-311+G(2d,p)
 ****
 1  2  3  4  5  16  17  18  19  20  21  22  23  24  25 0
 3-21G
 ****
 27  28  30  31  32  35  37  42  43  44  45  46  47 0
 3-21G
 ****
 48  49 0
 3-21G
 ****


