%nproc=1
%NoSave
%Mem=1900MB
#P OB98/GEN NMR

erre ene a

0 1
  C      253.772     204.407    -232.732
  O      252.714     203.915    -231.905
  P      253.136     203.491    -230.413
  C      250.775     203.628    -229.346
  O      251.857     202.793    -229.730
  C      249.561     202.792    -228.935
  O      248.949     202.159    -230.102
  C      249.888     201.668    -227.932
  O      248.755     201.550    -227.061
  C      250.005     200.460    -228.843
  O      249.941     199.220    -228.149
  C      248.857     200.746    -229.810
  N      247.306     196.420    -232.029
  C      247.106     196.920    -230.786
  N      247.560     198.082    -230.273
  C      248.287     198.755    -231.181
  C      248.581     198.367    -232.480
  C      248.056     197.131    -232.905
  N      248.274     196.601    -234.155
  N      249.381     199.319    -233.102
  C      249.618     200.218    -232.158
  N      248.910     199.964    -231.017
  O      253.266     204.888    -229.647
  O      254.394     202.688    -230.351
  H      249.927     198.484    -228.792
  H      254.200     205.164    -229.589
  H      246.502     196.307    -230.125
  H      250.282     201.062    -232.258
  H      247.881     200.565    -229.350
  H      250.968     200.487    -229.365
  H      250.779     201.862    -227.334
  H      248.808     203.465    -228.503
  H      250.499     204.288    -230.169
  H      247.861     195.707    -234.362
  H      248.836     197.101    -234.828
  H      251.108     204.285    -228.531
  P      248.989     201.606    -225.475
  C      246.560     202.385    -225.172
  O      247.526     201.400    -224.844
  O      249.195     203.185    -225.269
  O      250.096     200.764    -224.945
  H      248.492     203.693    -225.702
  H      245.600     202.079    -224.754
  H      246.461     202.469    -226.259
  H      246.854     203.350    -224.744
  H      253.383     204.658    -233.697
  H      254.524     203.653    -232.836
  H      254.200     205.278    -232.282

 3  4  5  6  7  8  9  10  11  12  22  25  29  30  31  32 0
 6-311+G(2d,p)
 ****
 33  36  37 0
 6-311+G(2d,p)
 ****
 1  2  13  14  15  16  17  18  19  20  21  23  24  26 0
 3-21G
 ****
 27  28  34  35  38  39  40  41  42  43  44  45  46  47  48 0
 3-21G
 ****


