%nproc=1
%NoSave
%Mem=1900MB
#P OB98/GEN NMR

erre ene a

0 1
  C      506.118     545.314     221.101
  O      505.107     546.010     220.370
  P      503.663     546.150     221.062
  C      503.412     548.639     220.275
  O      503.480     547.719     221.352
  C      502.924     550.000     220.772
  O      501.592     549.885     221.333
  C      503.777     550.595     221.879
  O      504.999     551.111     221.372
  C      502.827     551.646     222.443
  O      502.840     552.823     221.618
  C      501.459     550.941     222.316
  N      500.968     550.418     223.591
  C      499.923     551.133     224.172
  O      499.448     552.152     223.677
  N      499.459     550.638     225.362
  C      499.943     549.548     226.021
  O      499.476     549.148     227.083
  C      501.075     548.864     225.381
  C      501.531     549.321     224.211
  O      503.943     545.508     222.498
  O      502.571     545.503     220.274
  H      504.839     545.690     222.827
  H      503.026     552.519     220.707
  H      498.693     551.135     225.795
  H      501.503     548.011     225.895
  H      502.368     548.833     223.725
  H      500.708     551.631     221.922
  H      503.089     551.954     223.458
  H      503.982     549.838     222.643
  H      502.882     550.678     219.921
  H      502.722     548.265     219.509
  H      504.404     548.718     219.815
  P      506.355     550.510     221.993
  C      507.656     550.592     219.734
  O      507.139     549.815     220.787
  O      505.782     549.277     222.842
  O      507.137     551.496     222.792
  H      505.111     548.763     222.366
  H      508.430     550.019     219.216
  H      508.105     551.523     220.107
  H      506.857     550.826     219.021
  H      507.022     545.295     220.529
  H      505.795     544.312     221.291
  H      506.294     545.814     222.030

 3  4  5  6  7  8  9  10  11  12  13  24  28  29  30  31  32 0
 6-311+G(2d,p)
 ****
 33  34 0
 6-311+G(2d,p)
 ****
 1  2  14  15  16  17  18  19  20  21  22  23  25  26  27 0
 3-21G
 ****
 35  36  37  38  39  40  41  42  43  44  45 0
 3-21G
 ****


