%nproc=1
%NoSave
%Mem=1900MB
#P OB98/GEN NMR

erre ene a

0 1
  C     -146.403     190.732     -21.358
  O     -145.324     191.626     -21.164
  H     -146.027     189.708     -21.282
  H     -146.831     190.878     -22.353
  H     -147.169     190.887     -20.593
  P     -145.689     193.186     -21.059
  C     -145.282     193.797     -23.580
  O     -144.864     193.904     -22.231
  C     -144.448     194.714     -24.477
  O     -144.758     196.091     -24.149
  C     -142.939     194.523     -24.318
  O     -142.321     194.713     -25.592
  C     -142.539     195.660     -23.392
  O     -141.160     195.996     -23.517
  C     -143.521     196.760     -23.827
  N     -143.711     197.777     -22.796
  C     -144.113     199.044     -23.229
  O     -144.278     199.266     -24.430
  N     -144.279     200.042     -22.303
  C     -144.004     199.815     -21.057
  N     -144.164     200.852     -20.192
  C     -143.534     198.507     -20.560
  C     -143.420     197.541     -21.472
  O     -144.911     193.615     -19.727
  O     -147.153     193.477     -21.039
  H     -140.921     196.612     -22.791
  H     -144.007     193.263     -19.677
  H     -143.307     198.369     -19.514
  H     -143.091     196.548     -21.194
  H     -143.163     197.257     -24.738
  H     -142.722     195.379     -22.350
  H     -142.676     193.541     -23.921
  H     -144.757     194.558     -25.517
  H     -144.467     201.738     -20.579
  H     -146.339     194.063     -23.673
  H     -143.928     200.805     -19.213
  H     -145.165     192.754     -23.889
  P     -141.907     193.439     -26.466
  C     -139.448     193.653     -25.690
  O     -140.339     193.505     -26.790
  O     -142.787     193.137     -27.631
  O     -141.981     192.241     -25.393
  H     -142.380     191.468     -25.837
  H     -138.440     193.682     -26.049
  H     -139.565     192.825     -25.022
  H     -139.669     194.563     -25.172

 6  7  8  9  10  11  12  13  14  15  16  26  30  31  32  33  35 0
 6-311+G(2d,p)
 ****
 37  38 0
 6-311+G(2d,p)
 ****
 1  2  3  4  5  17  18  19  20  21  22  23  24  25 0
 3-21G
 ****
 27  28  29  34  36  39  40  41  42  43  44  45  46 0
 3-21G
 ****


