%nproc=1
%NoSave
%Mem=1900MB
#P OB98/GEN NMR

erre ene a

0 1
  C      822.697     538.537    -389.730
  O      823.340     538.495    -388.445
  P      823.539     537.148    -387.604
  C      826.123     537.276    -387.382
  O      825.021     536.567    -387.926
  C      827.146     536.314    -386.773
  O      826.557     535.574    -385.665
  C      827.647     535.228    -387.706
  O      828.560     535.733    -388.687
  C      828.261     534.243    -386.712
  O      829.604     534.623    -386.375
  C      827.343     534.393    -385.479
  N      826.513     533.234    -385.250
  C      827.172     532.043    -384.892
  O      828.385     532.001    -384.856
  N      826.405     530.946    -384.580
  C      825.112     530.985    -384.745
  N      824.403     529.861    -384.415
  C      824.407     532.172    -385.257
  C      825.151     533.247    -385.481
  O      822.452     536.146    -387.799
  O      823.635     537.615    -386.064
  H      823.358     536.875    -385.496
  H      830.152     534.539    -387.193
  H      823.320     532.149    -385.409
  H      824.704     534.172    -385.842
  H      827.955     534.590    -384.592
  H      828.311     533.221    -387.106
  H      826.790     534.753    -388.210
  H      827.987     536.906    -386.384
  H      824.928     529.074    -384.053
  H      825.764     537.952    -386.586
  H      823.404     529.806    -384.471
  H      826.595     537.904    -388.161
  P      828.363     535.214    -390.185
  C      827.296     537.440    -391.002
  O      827.142     536.041    -390.825
  O      827.765     533.730    -390.007
  O      829.627     535.202    -391.006
  H      828.146     533.150    -390.685
  H      826.662     537.749    -391.860
  H      828.338     537.700    -391.246
  H      826.968     537.947    -390.110
  H      822.684     539.545    -390.090
  H      821.693     538.178    -389.638
  H      823.235     537.919    -390.418

 3  4  5  6  7  8  9  10  11  12  13  24  27  28  29  30  32 0
 6-311+G(2d,p)
 ****
 34  35 0
 6-311+G(2d,p)
 ****
 1  2  14  15  16  17  18  19  20  21  22  23  25  26 0
 3-21G
 ****
 31  33  36  37  38  39  40  41  42  43  44  45  46 0
 3-21G
 ****


