%nproc=1
%NoSave
%Mem=1900MB
#P OB98/GEN NMR

erre ene a

0 1
  C      456.273    -134.221    -383.969
  O      455.667    -133.544    -382.888
  H      457.190    -134.698    -383.617
  H      456.529    -133.502    -384.750
  H      455.608    -134.990    -384.374
  P      454.132    -133.112    -383.060
  C      452.807    -135.120    -382.086
  O      453.320    -133.815    -381.864
  C      451.334    -135.053    -382.492
  O      450.909    -136.383    -382.915
  C      450.392    -134.595    -381.366
  O      449.350    -133.792    -381.934
  C      449.779    -135.900    -380.891
  O      448.525    -135.705    -380.244
  C      449.687    -136.666    -382.208
  N      446.688    -139.993    -379.945
  C      446.521    -138.640    -380.168
  N      445.410    -138.066    -379.660
  N      447.376    -137.909    -380.834
  C      448.433    -138.612    -381.308
  C      448.715    -139.946    -381.150
  C      447.770    -140.743    -380.397
  O      447.872    -141.941    -380.148
  N      449.918    -140.264    -381.728
  C      450.371    -139.118    -382.210
  N      449.503    -138.087    -381.979
  O      453.681    -133.934    -384.358
  O      453.894    -131.648    -383.219
  H      448.049    -136.558    -380.242
  H      453.771    -133.375    -385.151
  H      446.008    -140.508    -379.413
  H      451.316    -138.982    -382.714
  H      448.845    -136.331    -382.830
  H      450.458    -136.399    -380.191
  H      444.692    -138.570    -379.163
  H      450.892    -134.042    -380.567
  H      445.256    -137.083    -379.849
  H      451.243    -134.397    -383.366
  H      452.896    -135.702    -381.164
  H      453.397    -135.611    -382.868
  P      449.299    -132.236    -381.545
  C      450.431    -131.458    -383.754
  O      449.305    -131.368    -382.894
  O      450.753    -131.972    -380.930
  O      448.225    -131.892    -380.568
  H      450.696    -131.315    -380.215
  H      450.283    -130.824    -384.603
  H      450.550    -132.470    -384.081
  H      451.309    -131.148    -383.226

 6  7  8  9  10  11  12  13  14  15  26  29  33  34 0
 6-311+G(2d,p)
 ****
 36  38  39  40  41 0
 6-311+G(2d,p)
 ****
 1  2  3  4  5  16  17  18  19  20  21  22  23  24  25 0
 3-21G
 ****
 27  28  30  31  32  35  37  42  43  44  45  46  47 0
 3-21G
 ****
 48  49 0
 3-21G
 ****


