%nproc=1
%NoSave
%Mem=1900MB
#P OB98/GEN NMR

erre ene a

0 1
  C     -330.581     220.992    -284.992
  O     -331.260     220.382    -283.915
  H     -329.800     221.643    -284.581
  H     -331.268     221.606    -285.584
  H     -330.108     220.240    -285.625
  P     -332.582     219.518    -284.217
  C     -333.136     219.900    -281.741
  O     -333.030     218.935    -282.778
  C     -333.003     219.256    -280.356
  O     -334.232     218.558    -280.021
  C     -331.852     218.244    -280.253
  O     -331.108     218.485    -279.060
  C     -332.565     216.898    -280.171
  O     -331.759     215.906    -279.535
  C     -333.855     217.290    -279.444
  N     -334.912     216.294    -279.583
  C     -335.299     215.627    -278.418
  O     -334.732     215.866    -277.344
  N     -336.294     214.682    -278.492
  C     -336.818     214.387    -279.636
  N     -337.788     213.435    -279.651
  C     -336.404     215.033    -280.909
  C     -335.459     215.971    -280.804
  O     -332.426     218.492    -285.289
  O     -333.711     220.608    -284.529
  H     -331.745     216.086    -278.574
  H     -334.456     220.179    -285.025
  H     -336.853     214.744    -281.841
  H     -335.101     216.502    -281.684
  H     -333.664     217.447    -278.369
  H     -332.801     216.547    -281.187
  H     -331.164     218.278    -281.099
  H     -332.897     220.054    -279.610
  H     -338.043     213.020    -278.761
  H     -334.110     220.406    -281.832
  H     -338.258     213.122    -280.494
  H     -332.334     220.636    -281.868
  P     -329.607     219.033    -279.255
  C     -328.081     217.195    -278.238
  O     -328.710     218.460    -278.051
  O     -329.743     220.591    -278.926
  O     -329.065     218.796    -280.622
  H     -329.779     221.111    -279.754
  H     -327.521     216.942    -277.362
  H     -327.422     217.245    -279.080
  H     -328.827     216.448    -278.413

 6  7  8  9  10  11  12  13  14  15  16  26  30  31  32  33  35 0
 6-311+G(2d,p)
 ****
 37  38 0
 6-311+G(2d,p)
 ****
 1  2  3  4  5  17  18  19  20  21  22  23  24  25 0
 3-21G
 ****
 27  28  29  34  36  39  40  41  42  43  44  45  46 0
 3-21G
 ****


