%nproc=1
%NoSave
%Mem=1900MB
#P OB98/GEN NMR

erre ene a

0 1
  C       68.531    -473.891     129.789
  O       68.959    -472.534     129.817
  P       68.013    -471.472     130.572
  C       66.981    -471.084     128.220
  O       66.743    -471.276     129.612
  C       65.949    -471.834     127.389
  O       65.722    -473.138     127.959
  C       64.586    -471.172     127.329
  O       64.544    -470.125     126.378
  C       63.709    -472.345     126.901
  O       63.798    -472.512     125.475
  C       64.368    -473.527     127.627
  N       60.992    -476.698     129.674
  C       61.448    -476.612     128.378
  N       60.952    -477.513     127.499
  N       62.309    -475.717     127.966
  C       62.745    -474.903     128.954
  C       62.366    -474.894     130.278
  C       61.377    -475.857     130.708
  O       60.885    -475.941     131.833
  N       63.044    -473.928     130.986
  C       63.859    -473.387     130.101
  N       63.690    -473.921     128.843
  O       68.816    -470.100     130.408
  O       67.725    -471.788     131.999
  H       64.742    -472.600     125.254
  H       68.572    -469.487     131.132
  H       60.342    -477.420     129.938
  H       64.572    -472.608     130.316
  H       64.441    -474.403     126.965
  H       62.651    -472.195     127.144
  H       60.392    -478.306     127.784
  H       64.271    -470.826     128.324
  H       61.302    -477.496     126.550
  H       66.358    -471.970     126.383
  H       67.985    -471.463     127.975
  H       66.954    -470.011     127.999
  P       64.243    -468.646     126.940
  C       61.775    -469.184     126.317
  O       62.676    -468.631     127.265
  O       64.381    -467.724     125.640
  O       65.152    -468.219     128.046
  H       64.626    -466.816     125.897
  H       62.208    -470.064     125.822
  H       61.533    -468.427     125.568
  H       60.867    -469.485     126.829
  H       69.250    -474.481     129.259
  H       67.583    -473.956     129.296
  H       68.438    -474.256     130.790

 3  4  5  6  7  8  9  10  11  12  23  26  30  31  33  0
 6-311+G(2d,p)
 ****
 35  36  37  38 0
 6-311+G(2d,p)
 ****
 1  2  13  14  15  16  17  18  19  20  21  22  24  25  27  28  29 0
 3-21G
 ****
 32  34  39  40  41  42  43  44  45  46  47  48  49 0
 3-21G
 ****


