%nproc=1
%NoSave
%Mem=1900MB
#P OB98/GEN NMR

erre ene a

0 1
  C      185.035     152.313     459.290
  O      183.987     153.270     459.200
  P      182.483     152.722     459.381
  C      181.997     153.505     456.931
  O      181.921     152.468     457.900
  C      181.385     153.025     455.610
  O      182.111     151.875     455.119
  C      179.933     152.598     455.712
  O      179.076     153.724     455.663
  C      179.798     151.672     454.509
  O      179.605     152.427     453.297
  C      181.159     150.960     454.504
  N      180.200     146.015     454.094
  C      179.908     147.050     453.224
  N      179.311     146.712     452.056
  N      180.180     148.306     453.475
  C      180.758     148.494     454.683
  C      181.087     147.551     455.637
  C      180.833     146.168     455.321
  O      181.153     145.208     456.014
  N      181.641     148.127     456.748
  C      181.685     149.413     456.456
  N      181.177     149.687     455.196
  O      181.688     154.021     459.892
  O      182.338     151.556     460.310
  H      180.260     153.145     453.250
  H      181.586     153.998     460.859
  H      179.985     145.062     453.838
  H      182.090     150.182     457.096
  H      181.526     150.764     453.482
  H      178.947     150.991     454.599
  H      179.059     145.767     451.808
  H      179.764     152.026     456.636
  H      179.089     147.457     451.414
  H      181.503     153.831     454.875
  H      183.048     153.774     456.771
  H      181.456     154.389     457.309
  P      177.599     153.569     456.276
  C      176.347     154.069     454.053
  O      176.633     153.136     455.077
  O      177.167     155.076     456.588
  O      177.529     152.708     457.502
  H      176.634     155.097     457.406
  H      176.164     153.530     453.116
  H      177.177     154.771     453.905
  H      175.447     154.635     454.323
  H      185.977     152.802     459.153
  H      184.905     151.570     458.531
  H      185.011     151.848     460.253

 3  4  5  6  7  8  9  10  11  12  23  26  30  31 0
 6-311+G(2d,p)
 ****
 33  35  36  37  38 0
 6-311+G(2d,p)
 ****
 1  2  13  14  15  16  17  18  19  20  21  22  24  25 0
 3-21G
 ****
 27  28  29  32  34  39  40  41  42  43  44  45  46  47  48  49 0
 3-21G
 ****


