%nproc=1
%NoSave
%Mem=1900MB
#P OB98/GEN NMR

erre ene a

0 1
  C     -609.891     182.806     131.246
  O     -609.698     183.353     132.566
  P     -609.289     184.884     132.797
  C     -606.755     184.456     132.630
  O     -607.820     184.927     133.452
  C     -605.391     184.983     133.111
  O     -605.289     186.403     132.943
  C     -605.119     184.701     134.591
  O     -604.703     183.359     134.777
  C     -604.035     185.753     134.873
  O     -602.746     185.287     134.439
  C     -604.502     186.930     134.024
  N     -607.064     191.348     133.706
  C     -606.445     190.586     132.769
  N     -605.794     189.426     132.927
  C     -605.807     189.048     134.217
  C     -606.398     189.718     135.280
  C     -607.052     190.924     134.988
  N     -607.665     191.704     135.934
  N     -606.201     189.016     136.469
  C     -605.524     187.947     136.116
  N     -605.264     187.921     134.770
  O     -610.314     185.687     133.540
  O     -609.064     185.476     131.331
  H     -602.111     186.025     134.571
  H     -609.250     186.435     131.323
  H     -606.492     190.970     131.745
  H     -605.198     187.163     136.793
  H     -603.661     187.454     133.557
  H     -603.950     185.983     135.941
  H     -605.999     184.924     135.178
  H     -604.625     184.515     132.484
  H     -606.929     184.810     131.600
  H     -608.078     192.571     135.654
  H     -607.622     191.416     136.909
  H     -606.755     183.367     132.632
  P     -605.784     182.249     135.188
  C     -604.943     182.211     137.602
  O     -605.183     181.447     136.445
  O     -606.278     181.401     134.063
  O     -606.985     183.105     135.839
  H     -607.823     182.639     135.692
  H     -603.991     182.742     137.499
  H     -604.883     181.542     138.466
  H     -605.749     182.933     137.781
  H     -610.158     181.773     131.324
  H     -608.984     182.899     130.685
  H     -610.674     183.340     130.749

 3  4  5  6  7  8  9  10  11  12  22  25  29  30  31  32 0
 6-311+G(2d,p)
 ****
 33  36  37 0
 6-311+G(2d,p)
 ****
 1  2  13  14  15  16  17  18  19  20  21  23  24  26 0
 3-21G
 ****
 27  28  34  35  38  39  40  41  42  43  44  45  46  47  48 0
 3-21G
 ****


