%nproc=1
%NoSave
%Mem=1900MB
#P OB98/GEN NMR

erre ene a

0 1
  C     -191.900     523.920     -66.140
  O     -192.150     524.639     -64.950
  H     -191.379     522.992     -65.891
  H     -191.264     524.509     -66.808
  H     -192.837     523.676     -66.650
  P     -193.087     525.937     -65.074
  C     -193.988     525.552     -62.672
  O     -193.358     526.449     -63.577
  C     -193.862     526.080     -61.236
  O     -194.105     527.506     -61.209
  C     -194.855     525.461     -60.258
  O     -194.411     524.201     -59.769
  C     -194.852     526.514     -59.155
  O     -193.657     526.371     -58.361
  C     -194.792     527.819     -59.967
  N     -198.564     530.765     -58.300
  C     -197.381     530.406     -57.685
  N     -197.168     530.895     -56.440
  N     -196.480     529.629     -58.229
  C     -196.829     529.206     -59.475
  C     -197.975     529.498     -60.182
  C     -198.957     530.356     -59.570
  O     -200.005     530.722     -60.076
  N     -197.967     528.891     -61.408
  C     -196.824     528.214     -61.438
  N     -196.105     528.373     -60.277
  O     -194.505     525.329     -65.515
  O     -192.623     526.977     -66.039
  H     -193.702     525.489     -57.934
  H     -194.937     525.954     -66.129
  H     -199.234     531.348     -57.823
  H     -196.480     527.609     -62.265
  H     -194.230     528.602     -59.458
  H     -195.701     526.419     -58.483
  H     -197.846     531.449     -55.940
  H     -195.865     525.399     -60.691
  H     -196.291     530.676     -55.985
  H     -192.835     525.910     -60.910
  H     -193.505     524.571     -62.734
  H     -195.050     525.454     -62.947
  P     -195.499     523.041     -59.582
  C     -193.777     521.201     -60.165
  O     -194.670     521.723     -59.204
  O     -195.989     522.760     -61.081
  O     -196.642     523.391     -58.679
  H     -196.882     522.357     -61.073
  H     -193.300     520.328     -59.772
  H     -193.036     521.936     -60.400
  H     -194.318     520.943     -61.052

 6  7  8  9  10  11  12  13  14  15  26  29  33  34 0
 6-311+G(2d,p)
 ****
 36  38  39  40  41 0
 6-311+G(2d,p)
 ****
 1  2  3  4  5  16  17  18  19  20  21  22  23  24  25 0
 3-21G
 ****
 27  28  30  31  32  35  37  42  43  44  45  46  47 0
 3-21G
 ****
 48  49 0
 3-21G
 ****


