%nproc=1
%NoSave
%Mem=1900MB
#P OB98/GEN NMR

erre ene a

0 1
  C     -122.325     136.535    -629.682
  O     -120.922     136.399    -629.827
  H     -122.529     137.287    -628.919
  H     -122.766     135.586    -629.378
  H     -122.771     136.861    -630.630
  P     -120.413     135.347    -630.928
  C     -119.706     137.236    -632.585
  O     -119.297     136.112    -631.799
  C     -118.490     138.093    -632.906
  O     -118.003     138.745    -631.711
  C     -117.293     137.306    -633.454
  O     -117.454     136.973    -634.837
  C     -116.160     138.288    -633.185
  O     -116.052     139.277    -634.221
  C     -116.573     138.936    -631.867
  N     -112.310     139.239    -629.079
  C     -112.769     139.982    -630.117
  N     -113.924     139.852    -630.795
  C     -114.649     138.826    -630.293
  C     -114.308     137.985    -629.239
  C     -113.070     138.229    -628.621
  N     -112.589     137.454    -627.572
  N     -115.302     137.032    -629.043
  C     -116.217     137.290    -629.952
  N     -115.871     138.389    -630.723
  O     -121.659     135.231    -631.923
  O     -119.999     134.019    -630.388
  H     -116.899     139.783    -634.182
  H     -122.161     134.417    -631.716
  H     -112.111     140.806    -630.436
  H     -117.137     136.751    -630.098
  H     -116.400     140.026    -631.869
  H     -115.200     137.761    -633.132
  H     -117.139     136.404    -632.849
  H     -118.792     138.892    -633.614
  H     -120.435     137.840    -632.017
  H     -120.175     136.870    -633.505
  H     -111.673     137.636    -627.238
  H     -113.109     136.626    -627.307
  P     -116.712     135.656    -635.348
  C     -118.978     134.421    -635.759
  O     -117.745     134.871    -636.297
  O     -116.615     134.714    -634.051
  O     -115.360     135.899    -635.961
  H     -115.780     134.211    -634.071
  H     -119.539     133.923    -636.522
  H     -119.536     135.259    -635.396
  H     -118.789     133.742    -634.954

 6  7  8  9  10  11  12  13  14  15  25  28  32  33  34  35 0
 6-311+G(2d,p)
 ****
 36  37  40 0
 6-311+G(2d,p)
 ****
 1  2  3  4  5  16  17  18  19  20  21  22  23  24 0
 3-21G
 ****
 26  27  29  30  31  38  39 41  42  43  44  45  46  47  48 0
 3-21G
 ****


