%nproc=1
%NoSave
%Mem=1900MB
#P OB98/GEN NMR

erre ene a

0 1
  C      -97.368      23.775     -36.308
  O      -96.603      22.601     -36.026
  P      -96.713      21.308     -36.970
  C      -95.143      21.819     -38.926
  O      -95.308      21.084     -37.718
  C      -93.772      21.613     -39.582
  O      -92.731      22.288     -38.835
  C      -93.343      20.149     -39.730
  O      -92.577      20.086     -40.937
  C      -92.456      19.949     -38.515
  O      -91.601      18.821     -38.640
  C      -91.752      21.311     -38.442
  N      -91.212      21.585     -37.114
  C      -89.862      21.298     -36.907
  O      -89.193      20.780     -37.803
  N      -89.311      21.555     -35.676
  C      -90.068      21.971     -34.709
  N      -89.472      22.186     -33.505
  C      -91.519      22.206     -34.858
  C      -92.014      22.005     -36.078
  O      -97.904      21.292     -37.871
  O      -96.776      20.084     -35.936
  H      -91.084      18.917     -39.469
  H      -97.297      19.358     -36.328
  H      -92.114      22.527     -34.017
  H      -93.065      22.154     -36.291
  H      -90.927      21.357     -39.166
  H      -93.078      19.797     -37.625
  H      -94.182      19.451     -39.762
  H      -93.810      22.089     -40.571
  H      -88.481      21.988     -33.437
  H      -95.278      22.883     -38.706
  H      -89.985      22.397     -32.662
  H      -95.936      21.533     -39.626
  P      -92.966      19.104     -42.139
  C      -95.126      20.321     -42.769
  O      -93.821      19.965     -43.183
  O      -93.605      17.821     -41.720
  O      -91.589      18.840     -42.918
  H      -91.684      18.048     -43.478
  H      -95.524      21.071     -43.455
  H      -95.114      20.736     -41.756
  H      -95.773      19.439     -42.791
  H      -97.159      24.522     -35.571
  H      -98.411      23.535     -36.287
  H      -97.107      24.147     -37.277

 3  4  5  6  7  8  9  10  11  12  13  23  27  28  29  30  32 0
 6-311+G(2d,p)
 ****
 34  35 0
 6-311+G(2d,p)
 ****
 1  2  14  15  16  17  18  19  20  21  22  24  25  26 0
 3-21G
 ****
 31  33  36  37  38  39  40  41  42  43  44  45  46 0
 3-21G
 ****


