%nproc=1
%NoSave
%Mem=1900MB
#P OB98/GEN NMR

erre ene a

0 1
  C      104.432    -232.641    -642.759
  O      104.811    -233.204    -644.018
  P      105.125    -232.160    -645.204
  C      102.556    -231.946    -645.625
  O      103.805    -231.270    -645.439
  C      101.708    -231.289    -646.716
  O      101.450    -229.906    -646.347
  C      102.339    -231.285    -648.110
  O      101.311    -231.483    -649.086
  C      102.840    -229.857    -648.259
  O      102.980    -229.475    -649.628
  C      101.740    -229.092    -647.502
  N      101.508    -224.160    -648.654
  C      100.859    -225.247    -649.233
  N      100.046    -224.965    -650.270
  N      100.993    -226.475    -648.814
  C      101.802    -226.600    -647.742
  C      102.496    -225.616    -647.070
  C      102.372    -224.257    -647.570
  O      102.970    -223.265    -647.127
  N      103.234    -226.136    -646.025
  C      102.971    -227.429    -646.069
  N      102.136    -227.769    -647.096
  O      105.208    -233.094    -646.502
  O      106.390    -231.382    -645.003
  H      103.058    -228.499    -649.652
  H      106.067    -232.973    -646.949
  H      101.381    -223.237    -649.025
  H      103.407    -228.169    -645.392
  H      100.822    -229.015    -648.107
  H      103.813    -229.749    -647.770
  H       99.841    -224.029    -650.608
  H      103.137    -232.020    -648.260
  H       99.524    -225.724    -650.692
  H      100.738    -231.803    -646.744
  H      102.004    -231.935    -644.675
  H      102.775    -232.983    -645.880
  P      101.079    -232.999    -649.598
  C      103.158    -232.989    -651.182
  O      102.529    -233.532    -650.023
  O      100.301    -232.797    -650.980
  O      100.308    -233.857    -648.621
  H       99.754    -233.588    -651.177
  H      102.634    -232.081    -651.539
  H      103.153    -233.728    -651.977
  H      104.180    -232.720    -650.926
  H      104.251    -233.428    -642.057
  H      103.542    -232.060    -642.882
  H      105.220    -232.014    -642.397

 3  4  5  6  7  8  9  10  11  12  23  26  30  31  33  0
 6-311+G(2d,p)
 ****
 35  36  37  38 0
 6-311+G(2d,p)
 ****
 1  2  13  14  15  16  17  18  19  20  21  22  24  25  27  28  29 0
 3-21G
 ****
 32  34  39  40  41  42  43  44  45  46  47  48  49 0
 3-21G
 ****


