%nproc=1
%NoSave
%Mem=1900MB
#P OB98/GEN NMR

erre ene a

0 1
  C      364.959     283.379    -898.920
  O      366.178     283.505    -898.220
  H      364.350     282.616    -898.440
  H      365.148     283.067    -899.960
  H      364.410     284.328    -898.910
  P      367.149     284.709    -898.670
  C      368.900     286.144    -897.320
  O      368.150     284.945    -897.430
  C      369.777     286.106    -896.070
  O      368.964     286.476    -894.910
  C      370.417     284.755    -895.790
  O      371.719     284.951    -895.230
  C      369.500     284.152    -894.730
  O      370.153     283.154    -893.960
  C      369.092     285.412    -893.950
  N      367.848     285.237    -893.190
  C      367.921     284.450    -892.020
  O      369.005     283.964    -891.690
  N      366.769     284.225    -891.300
  C      365.640     284.679    -891.740
  N      364.528     284.397    -891.000
  C      365.511     285.456    -892.990
  C      366.629     285.709    -893.640
  O      366.162     285.972    -898.610
  O      367.809     284.502    -900.000
  H      369.528     282.788    -893.300
  H      365.609     285.990    -897.810
  H      364.524     285.809    -893.330
  H      366.627     286.297    -894.570
  H      369.879     285.702    -893.230
  H      368.600     283.690    -895.200
  H      370.478     284.122    -896.690
  H      370.552     286.890    -896.170
  H      364.664     283.836    -890.160
  H      368.219     287.017    -897.270
  H      363.603     284.634    -891.270
  H      369.519     286.255    -898.230
  P      372.981     284.960    -896.220
  C      375.225     286.245    -896.460
  O      374.004     286.102    -895.740
  O      372.690     284.933    -897.670
  O      373.776     283.623    -895.780
  H      374.118     283.193    -896.610
  H      375.801     287.038    -896.031
  H      375.011     286.473    -897.483
  H      375.780     285.332    -896.406

 6  7  8  9  10  11  12  13  14  15  16  26  30  31  32  33  35 0
 6-311+G(2d,p)
 ****
 37  38 0
 6-311+G(2d,p)
 ****
 1  2  3  4  5  17  18  19  20  21  22  23  24  25 0
 3-21G
 ****
 27  28  29  34  36  39  40  41  42  43  44  45  46 0
 3-21G
 ****


