%nproc=1
%NoSave
%Mem=1900MB
#P OB98/GEN NMR

erre ene a

0 1
  C     -130.112      55.526     237.977
  O     -128.872      56.183     238.132
  P     -127.860      56.283     236.896
  C     -126.155      54.812     238.135
  O     -126.906      54.996     236.937
  C     -125.955      53.323     238.409
  O     -127.221      52.630     238.373
  C     -125.071      52.616     237.390
  O     -123.705      52.915     237.613
  C     -125.453      51.159     237.628
  O     -124.741      50.626     238.755
  C     -126.952      51.275     237.945
  N     -128.571      47.477     234.950
  C     -127.611      47.529     235.898
  N     -127.210      48.590     236.629
  C     -127.899      49.691     236.278
  C     -128.881      49.798     235.303
  C     -129.235      48.614     234.634
  N     -130.254      48.535     233.711
  N     -129.332      51.103     235.215
  C     -128.625      51.767     236.108
  N     -127.798      50.943     236.817
  O     -127.153      57.589     236.754
  O     -128.788      56.003     235.622
  H     -123.790      50.777     238.596
  H     -128.772      56.778     235.031
  H     -127.104      46.592     236.105
  H     -128.692      52.832     236.289
  H     -127.244      50.619     238.774
  H     -125.230      50.521     236.770
  H     -125.369      52.904     236.375
  H     -125.539      53.217     239.424
  H     -126.705      55.272     238.960
  H     -130.519      47.612     233.401
  H     -130.945      49.280     233.690
  H     -125.186      55.311     238.034
  P     -122.888      53.758     236.526
  C     -121.369      51.741     236.084
  O     -122.232      52.703     235.514
  O     -121.952      54.785     237.074
  O     -124.037      54.437     235.636
  H     -123.727      55.303     235.311
  H     -120.396      52.195     236.291
  H     -121.236      50.923     235.374
  H     -121.789      51.339     237.010
  H     -130.651      55.558     238.901
  H     -129.943      54.507     237.698
  H     -130.682      56.015     237.215

 3  4  5  6  7  8  9  10  11  12  22  25  29  30  31  32 0
 6-311+G(2d,p)
 ****
 33  36  37 0
 6-311+G(2d,p)
 ****
 1  2  13  14  15  16  17  18  19  20  21  23  24  26 0
 3-21G
 ****
 27  28  34  35  38  39  40  41  42  43  44  45  46  47  48 0
 3-21G
 ****


