%nproc=1
%NoSave
%Mem=1900MB
#P OB98/GEN NMR

erre ene a

0 1
  C     -183.984    -147.636      49.462
  O     -183.646    -146.408      50.078
  P     -184.536    -145.849      51.285
  C     -183.788    -147.357      53.227
  O     -184.819    -147.066      52.289
  C     -184.242    -147.002      54.640
  O     -184.621    -145.612      54.712
  C     -185.460    -147.784      55.115
  O     -185.101    -149.102      55.484
  C     -185.942    -146.908      56.265
  O     -185.186    -147.177      57.458
  C     -185.632    -145.498      55.740
  N     -188.042    -141.016      55.411
  C     -186.977    -141.414      56.138
  N     -186.416    -142.641      56.201
  C     -187.088    -143.505      55.424
  C     -188.213    -143.255      54.654
  C     -188.683    -141.931      54.644
  N     -189.730    -141.499      53.860
  N     -188.632    -144.411      54.023
  C     -187.784    -145.339      54.413
  N     -186.797    -144.825      55.207
  O     -185.742    -145.069      50.880
  O     -183.519    -144.931      52.112
  H     -185.250    -148.135      57.633
  H     -183.851    -144.013      52.126
  H     -186.506    -140.644      56.742
  H     -187.831    -146.384      54.136
  H     -185.214    -144.856      56.523
  H     -186.996    -147.072      56.506
  H     -186.224    -147.797      54.330
  H     -183.394    -147.156      55.320
  H     -182.905    -146.767      52.961
  H     -189.891    -140.505      53.820
  H     -190.013    -142.079      53.073
  H     -183.533    -148.420      53.166
  P     -186.237    -150.216      55.661
  C     -185.692    -151.313      53.408
  O     -186.680    -150.670      54.189
  O     -187.356    -149.858      56.582
  O     -185.430    -151.492      56.196
  H     -186.004    -152.014      56.787
  H     -185.001    -150.568      53.004
  H     -186.181    -151.830      52.580
  H     -185.136    -152.042      54.005
  H     -183.283    -147.848      48.682
  H     -184.969    -147.569      49.049
  H     -183.956    -148.420      50.190

 3  4  5  6  7  8  9  10  11  12  22  25  29  30  31  32 0
 6-311+G(2d,p)
 ****
 33  36  37 0
 6-311+G(2d,p)
 ****
 1  2  13  14  15  16  17  18  19  20  21  23  24  26 0
 3-21G
 ****
 27  28  34  35  38  39  40  41  42  43  44  45  46  47  48 0
 3-21G
 ****


