%nproc=1
%NoSave
%Mem=1900MB
#P OB98/GEN NMR

erre ene a

0 1
  C     -790.633     389.281      96.305
  O     -790.684     388.297      95.285
  P     -791.564     386.979      95.493
  C     -789.733     385.184      95.774
  O     -790.721     385.982      96.422
  C     -789.673     383.784      96.396
  O     -789.645     383.880      97.843
  C     -790.877     382.911      96.068
  O     -790.786     382.409      94.738
  C     -790.772     381.857      97.164
  O     -789.823     380.839      96.805
  C     -790.260     382.687      98.358
  N     -793.564     380.863     101.801
  C     -792.746     380.248     100.918
  N     -791.915     380.806     100.005
  C     -792.022     382.144     100.037
  C     -792.840     382.912     100.843
  C     -793.623     382.221     101.780
  N     -794.423     382.844     102.732
  N     -792.680     384.258     100.555
  C     -791.808     384.295      99.590
  N     -791.325     383.051      99.278
  O     -792.107     386.359      94.242
  O     -792.750     387.451      96.458
  H     -789.797     380.199      97.549
  H     -793.604     387.319      96.000
  H     -792.736     379.165     100.959
  H     -791.461     385.191      99.086
  H     -789.495     382.151      98.933
  H     -791.730     381.349      97.344
  H     -791.799     383.482      96.193
  H     -788.736     383.309      96.058
  H     -788.758     385.671      95.878
  H     -794.828     382.239     103.437
  H     -794.250     383.827     102.930
  H     -789.975     385.111      94.708
  P     -792.042     381.674      94.079
  C     -791.737     379.327      95.074
  O     -792.500     380.516      95.099
  O     -791.857     381.242      92.663
  O     -793.225     382.750      94.221
  H     -793.826     382.661      93.466
  H     -792.029     378.718      94.214
  H     -791.944     378.759      95.984
  H     -790.659     379.540      95.020
  H     -790.000     390.086      95.993
  H     -790.241     388.846      97.201
  H     -791.619     389.654      96.491

 3  4  5  6  7  8  9  10  11  12  22  25  29  30  31  32 0
 6-311+G(2d,p)
 ****
 33  36  37 0
 6-311+G(2d,p)
 ****
 1  2  13  14  15  16  17  18  19  20  21  23  24  26 0
 3-21G
 ****
 27  28  34  35  38  39  40  41  42  43  44  45  46  47  48 0
 3-21G
 ****


