%nproc=1
%NoSave
%Mem=1900MB
#P OB98/GEN NMR

erre ene a

0 1
  C     -285.388    -280.457    -299.308
  O     -284.116    -279.939    -298.893
  P     -283.670    -278.500    -299.441
  C     -281.427    -279.193    -300.555
  O     -282.072    -278.469    -299.518
  C     -280.077    -279.738    -300.067
  O     -280.250    -280.668    -298.966
  C     -279.300    -280.492    -301.136
  O     -278.575    -279.603    -301.974
  C     -278.331    -281.296    -300.280
  O     -277.231    -280.468    -299.866
  C     -279.208    -281.672    -299.077
  N     -278.350    -286.659    -298.854
  C     -277.489    -285.599    -298.654
  N     -276.213    -285.911    -298.337
  N     -277.852    -284.344    -298.751
  C     -279.155    -284.179    -299.051
  C     -280.108    -285.154    -299.276
  C     -279.703    -286.534    -299.180
  O     -280.410    -287.517    -299.369
  N     -281.326    -284.593    -299.568
  C     -281.120    -283.292    -299.496
  N     -279.814    -282.990    -299.204
  O     -283.981    -277.533    -298.193
  O     -284.391    -278.058    -300.672
  H     -276.646    -281.026    -299.322
  H     -284.173    -276.634    -298.516
  H     -278.022    -287.608    -298.776
  H     -281.885    -282.541    -299.652
  H     -278.641    -281.670    -298.134
  H     -277.904    -282.145    -300.824
  H     -275.883    -286.855    -298.197
  H     -279.953    -281.162    -301.701
  H     -275.575    -285.146    -298.154
  H     -279.479    -278.887    -299.710
  H     -281.276    -278.560    -301.432
  H     -282.091    -280.003    -300.890
  P     -277.914    -280.201    -303.313
  C     -275.973    -278.531    -303.705
  O     -277.261    -278.968    -304.080
  O     -279.196    -280.589    -304.193
  O     -277.023    -281.383    -303.086
  H     -278.991    -281.364    -304.752
  H     -275.624    -277.798    -304.435
  H     -275.268    -279.369    -303.687
  H     -276.011    -278.056    -302.723
  H     -285.544    -281.418    -298.864
  H     -285.405    -280.550    -300.374
  H     -286.164    -279.790    -298.996

 3  4  5  6  7  8  9  10  11  12  23  26  30  31 0
 6-311+G(2d,p)
 ****
 33  35  36  37  38 0
 6-311+G(2d,p)
 ****
 1  2  13  14  15  16  17  18  19  20  21  22  24  25 0
 3-21G
 ****
 27  28  29  32  34  39  40  41  42  43  44  45  46  47  48  49 0
 3-21G
 ****


