%nproc=1
%NoSave
%Mem=1900MB
#P OB98/GEN NMR

erre ene a

0 1
  C       22.760    -181.346     292.226
  O       23.951    -180.681     292.591
  H       22.868    -182.409     292.461
  H       22.582    -181.243     291.153
  H       21.907    -180.951     292.784
  P       23.998    -179.083     292.507
  C       25.585    -179.136     290.475
  O       24.328    -178.704     290.984
  C       25.679    -178.820     288.986
  O       24.590    -179.453     288.276
  C       25.563    -177.335     288.664
  O       26.756    -176.641     288.974
  C       25.214    -177.390     287.187
  O       26.386    -177.567     286.383
  C       24.309    -178.641     287.114
  N       22.890    -178.290     287.046
  C       22.345    -178.186     285.772
  O       22.984    -178.381     284.740
  N       21.036    -177.784     285.717
  C       20.292    -177.353     286.777
  O       19.219    -176.772     286.653
  C       20.898    -177.545     288.102
  C       22.156    -177.985     288.175
  O       24.851    -178.406     293.528
  O       22.461    -178.654     292.655
  H       22.302    -178.338     293.565
  H       26.951    -176.785     286.559
  H       20.645    -177.664     284.793
  H       20.312    -177.282     288.973
  H       22.639    -178.103     289.142
  H       24.562    -179.246     286.236
  H       24.718    -176.475     286.858
  H       24.720    -176.901     289.213
  H       26.621    -179.231     288.603
  H       25.671    -180.218     290.624
  H       26.385    -178.636     291.031
  P       26.739    -175.053     289.171
  C       28.106    -174.495     287.068
  O       26.850    -174.364     287.728
  O       27.694    -174.526     290.189
  O       25.226    -174.732     289.596
  H       25.238    -174.172     290.397
  H       28.064    -174.000     286.120
  H       28.324    -175.532     286.920
  H       28.872    -174.051     287.669

 6  7  8  9  10  11  12  13  14  15  16  27  31  32  33  34  35 0
 6-311+G(2d,p)
 ****
 36  37 0
 6-311+G(2d,p)
 ****
 1  2  3  4  5  17  18  19  20  21  22  23  24  25 0
 3-21G
 ****
 26  28  29  30  38  39  40  41  42  43  44  45 0
 3-21G
 ****


