%nproc=1
%NoSave
%Mem=1900MB
#P OB98/GEN NMR

erre ene a

0 1
  C     -222.549    -303.399     -56.821
  O     -221.697    -302.304     -57.099
  H     -223.591    -303.069     -56.794
  H     -222.434    -304.140     -57.614
  H     -222.274    -303.854     -55.867
  P     -221.798    -301.051     -56.100
  C     -223.624    -299.879     -57.522
  O     -223.280    -300.456     -56.270
  C     -225.013    -299.254     -57.449
  O     -226.009    -300.272     -57.222
  C     -225.199    -298.245     -56.324
  O     -224.638    -296.978     -56.643
  C     -226.721    -298.182     -56.253
  O     -227.217    -297.314     -57.287
  C     -227.124    -299.635     -56.545
  N     -230.806    -302.186     -54.031
  C     -230.812    -301.528     -55.217
  N     -229.801    -300.865     -55.814
  C     -228.681    -300.932     -55.074
  C     -228.525    -301.568     -53.854
  C     -229.658    -302.211     -53.324
  N     -229.644    -302.866     -52.109
  N     -227.230    -301.437     -53.398
  C     -226.613    -300.738     -54.330
  N     -227.451    -300.404     -55.358
  O     -220.872    -299.942     -56.794
  O     -221.370    -301.318     -54.693
  H     -226.826    -297.625     -58.125
  H     -220.421    -299.428     -56.100
  H     -231.756    -301.536     -55.754
  H     -225.565    -300.455     -54.300
  H     -227.978    -299.683     -57.228
  H     -227.088    -297.799     -55.301
  H     -224.807    -298.630     -55.376
  H     -225.224    -298.789     -58.424
  H     -223.620    -300.660     -58.291
  H     -230.414    -303.469     -51.880
  H     -228.772    -302.885     -51.588
  H     -222.878    -299.122     -57.778
  P     -224.172    -296.047     -55.418
  C     -226.287    -294.547     -55.541
  O     -225.527    -295.475     -54.774
  O     -223.546    -294.770     -56.155
  O     -223.201    -296.679     -54.477
  H     -222.895    -294.335     -55.570
  H     -227.156    -294.255     -54.989
  H     -226.586    -295.005     -56.461
  H     -225.690    -293.684     -55.750

 6  7  8  9  10  11  12  13  14  15  25  28  32  33  34  35 0
 6-311+G(2d,p)
 ****
 36  39  40 0
 6-311+G(2d,p)
 ****
 1  2  3  4  5  16  17  18  19  20  21  22  23  24 0
 3-21G
 ****
 26  27  29  30  31  37  38  41  42  43  44  45  46  47  48 0
 3-21G
 ****


