%nproc=1
%NoSave
%Mem=1900MB
#P OB98/GEN NMR

erre ene a

0 1
  C     -896.600     153.182     327.200
  O     -896.280     152.479     328.396
  P     -897.330     152.478     329.602
  C     -896.660     150.376     330.940
  O     -896.640     151.801     330.875
  C     -895.510     149.849     331.806
  O     -894.220     150.146     331.224
  C     -895.480     150.473     333.193
  O     -896.510     149.934     334.008
  C     -894.060     150.140     333.630
  O     -893.970     148.801     334.144
  C     -893.270     150.252     332.305
  N     -892.490     151.472     332.204
  C     -891.550     151.681     333.219
  O     -891.450     150.883     334.157
  N     -890.760     152.803     333.160
  C     -890.890     153.639     332.175
  N     -890.080     154.731     332.173
  C     -891.870     153.458     331.093
  C     -892.630     152.367     331.170
  O     -898.700     151.952     329.267
  O     -897.390     154.027     330.020
  H     -894.170     148.210     333.387
  H     -898.290     154.222     330.365
  H     -891.950     154.183     330.290
  H     -893.380     152.164     330.416
  H     -892.590     149.403     332.203
  H     -893.720     150.811     334.429
  H     -895.600     151.561     333.116
  H     -895.620     148.764     331.884
  H     -889.420     154.836     332.933
  H     -896.570     149.975     329.921
  H     -890.080     155.403     331.424
  H     -897.630     150.054     331.318
  P     -897.770     150.877     334.324
  C     -899.360     148.909     333.739
  O     -899.020     149.923     334.664
  O     -898.140     151.463     332.879
  O     -897.510     151.979     335.307
  H     -898.490     152.375     332.972
  H     -900.000     148.172     334.251
  H     -898.470     148.401     333.362
  H     -899.920     149.343     332.909
  H     -895.796     153.082     326.501
  H     -896.750     154.217     327.424
  H     -897.494     152.775     326.776

 3  4  5  6  7  8  9  10  11  12  13  23  27  28  29  30  32 0
 6-311+G(2d,p)
 ****
 34  35 0
 6-311+G(2d,p)
 ****
 1  2  14  15  16  17  18  19  20  21  22  24  25  26 0
 3-21G
 ****
 31  33  36  37  38  39  40  41  42  43  44  45  46 0
 3-21G
 ****


