%nproc=1
%NoSave
%Mem=1900MB
#P OB98/GEN NMR

erre ene a

0 1
  C      205.646     218.382     -53.338
  O      206.087     217.059     -53.569
  H      204.758     218.351     -52.701
  H      205.382     218.862     -54.286
  H      206.425     218.959     -52.832
  P      207.355     216.890     -54.539
  C      206.143     215.997     -56.653
  O      206.993     215.699     -55.553
  C      205.699     214.714     -57.354
  O      206.794     214.137     -58.097
  C      205.186     213.632     -56.410
  O      203.821     213.846     -56.087
  C      205.403     212.381     -57.251
  O      204.345     212.223     -58.223
  C      206.737     212.690     -57.948
  N      209.832     208.755     -57.274
  C      208.673     208.859     -58.012
  N      208.253     207.741     -58.651
  N      207.971     209.958     -58.117
  C      208.470     210.981     -57.384
  C      209.610     211.003     -56.607
  C      210.407     209.792     -56.551
  O      211.489     209.661     -55.978
  N      209.799     212.234     -56.033
  C      208.757     212.942     -56.429
  N      207.920     212.224     -57.248
  O      208.471     216.241     -53.589
  O      207.851     218.149     -55.169
  H      204.247     213.051     -58.727
  H      209.340     216.618     -53.822
  H      210.350     207.891     -57.258
  H      208.567     213.976     -56.167
  H      206.783     212.258     -58.957
  H      205.400     211.479     -56.640
  H      208.574     206.820     -58.383
  H      205.804     213.571     -55.506
  H      207.362     207.802     -59.130
  H      204.926     214.988     -58.083
  H      206.691     216.628     -57.359
  H      205.264     216.548     -56.294
  P      203.469     214.396     -54.625
  C      201.132     213.291     -54.888
  O      201.870     214.436     -54.481
  O      203.871     215.944     -54.719
  O      204.197     213.723     -53.509
  H      204.710     216.097     -54.237
  H      200.088     213.466     -54.733
  H      201.441     212.444     -54.311
  H      201.312     213.101     -55.926

 6  7  8  9  10  11  12  13  14  15  26  29  33  34 0
 6-311+G(2d,p)
 ****
 36  38  39  40  41 0
 6-311+G(2d,p)
 ****
 1  2  3  4  5  16  17  18  19  20  21  22  23  24  25 0
 3-21G
 ****
 27  28  30  31  32  35  37  42  43  44  45  46  47 0
 3-21G
 ****
 48  49 0
 3-21G
 ****


