%nproc=1
%NoSave
%Mem=1900MB
#P OB98/GEN NMR

erre ene a

0 1
  C       -6.615     154.676     135.513
  O       -6.905     154.628     134.131
  H       -7.387     154.149     136.080
  H       -5.654     154.185     135.689
  H       -6.548     155.714     135.851
  P       -8.278     155.307     133.655
  C       -8.797     153.214     132.207
  O       -8.637     154.625     132.247
  C       -9.321     152.797     130.837
  O      -10.723     153.129     130.717
  C       -8.631     153.486     129.665
  O       -7.395     152.877     129.337
  C       -9.661     153.269     128.570
  O       -9.579     151.915     128.087
  C      -10.976     153.485     129.330
  N      -14.920     156.477     128.038
  C      -14.735     155.143     127.953
  N      -13.654     154.423     128.315
  C      -12.695     155.221     128.809
  C      -12.737     156.598     128.949
  C      -13.921     157.236     128.543
  N      -14.108     158.599     128.614
  N      -11.545     157.073     129.463
  C      -10.813     155.996     129.659
  N      -11.460     154.853     129.270
  O       -7.840     156.790     133.239
  O       -9.387     155.298     134.653
  H      -10.249     151.829     127.384
  H       -8.615     157.382     133.244
  H      -15.566     154.579     127.538
  H       -9.816     155.991     130.078
  H      -11.783     152.838     128.967
  H       -9.516     153.925     127.710
  H       -8.516     154.563     129.841
  H       -9.230     151.706     130.756
  H       -9.514     152.911     132.976
  H      -14.911     158.969     128.129
  H      -13.316     159.180     128.846
  H       -7.834     152.736     132.408
  P       -6.059     153.583     129.878
  C       -4.474     153.334     127.831
  O       -4.846     152.859     129.122
  O       -5.944     153.041     131.377
  O       -6.070     155.074     129.811
  H       -5.451     153.670     131.937
  H       -3.655     152.754     127.460
  H       -4.181     154.361     127.899
  H       -5.306     153.244     127.164

 6  7  8  9  10  11  12  13  14  15  25  28  32  33  34  35 0
 6-311+G(2d,p)
 ****
 36  39  40 0
 6-311+G(2d,p)
 ****
 1  2  3  4  5  16  17  18  19  20  21  22  23  24 0
 3-21G
 ****
 26  27  29  30  31  37  38  41  42  43  44  45  46  47 0
 3-21G
 ****
 48 0
 3-21G
 ****


