%nproc=1
%NoSave
%Mem=1900MB
#P OB98/GEN NMR

erre ene a

0 1
  C     -171.202      87.441     -76.778
  O     -170.856      88.326     -75.730
  H     -172.291      87.394     -76.850
  H     -170.822      86.437     -76.573
  H     -170.803      87.802     -77.730
  P     -169.302      88.563     -75.420
  C     -167.881      90.595     -74.705
  O     -169.189      90.060     -74.858
  C     -167.960      92.088     -74.403
  O     -168.354      92.819     -75.580
  C     -168.966      92.447     -73.311
  O     -168.405      92.224     -72.028
  C     -169.193      93.917     -73.619
  O     -168.075      94.691     -73.143
  C     -169.218      93.910     -75.158
  N     -173.526      96.156     -76.602
  C     -172.414      96.688     -75.979
  N     -172.479      97.998     -75.658
  N     -171.346      95.995     -75.681
  C     -171.454      94.685     -75.998
  C     -172.508      94.038     -76.601
  C     -173.662      94.827     -76.977
  O     -174.662      94.398     -77.546
  N     -172.280      92.690     -76.704
  C     -171.073      92.529     -76.198
  N     -170.534      93.707     -75.742
  O     -168.349      88.263     -76.538
  O     -169.020      87.661     -74.131
  H     -168.245      95.615     -73.404
  H     -168.703      86.775     -74.383
  H     -174.326      96.738     -76.788
  H     -170.545      91.585     -76.142
  H     -168.814      94.834     -75.585
  H     -170.091      94.321     -73.153
  H     -173.362      98.491     -75.603
  H     -169.914      91.915     -73.442
  H     -171.696      98.395     -75.156
  H     -166.952      92.430     -74.134
  H     -167.341      90.422     -75.642
  H     -167.352      90.084     -73.895
  P     -169.332      91.824     -70.778
  C     -168.980      90.205     -68.795
  O     -168.617      90.546     -70.125
  O     -170.774      91.634     -71.103
  O     -169.058      92.963     -69.694
  H     -169.653      93.747     -69.786
  H     -168.432      89.339     -68.486
  H     -170.029      89.996     -68.754
  H     -168.753      91.022     -68.143

 6  7  8  9  10  11  12  13  14  15  26  29  33  34 0
 6-311+G(2d,p)
 ****
 36  38  39  40  41 0
 6-311+G(2d,p)
 ****
 1  2  3  4  5  16  17  18  19  20  21  22  23  24  25 0
 3-21G
 ****
 27  28  30  31  32  35  37  42  43  44  45  46  47 0
 3-21G
 ****
 48  49 0
 3-21G
 ****


