%nproc=1
%NoSave
%Mem=1900MB
#P OB98/GEN NMR

erre ene a

0 1
  C       10.700      22.203     -37.434
  O        9.538      22.100     -38.234
  H       10.651      21.443     -36.649
  H       10.756      23.188     -36.965
  H       11.594      22.024     -38.036
  P        9.347      23.137     -39.439
  C       10.930      21.849     -41.021
  O       10.690      23.059     -40.312
  C       11.157      22.140     -42.502
  O       12.010      23.289     -42.664
  C       11.821      20.999     -43.271
  O       10.867      20.016     -43.632
  C       12.365      21.754     -44.472
  O       11.292      22.033     -45.394
  C       12.856      23.063     -43.827
  N       17.565      24.643     -44.863
  C       16.412      24.744     -45.616
  N       16.537      25.320     -46.831
  N       15.244      24.308     -45.221
  C       15.282      23.692     -44.017
  C       16.365      23.515     -43.185
  C       17.638      24.062     -43.606
  O       18.680      24.015     -42.957
  N       16.038      22.760     -42.087
  C       14.748      22.527     -42.229
  N       14.242      23.064     -43.390
  O        8.956      24.531     -39.051
  O        8.255      22.448     -40.384
  H       11.689      22.470     -46.171
  H        7.354      22.739     -40.152
  H       18.438      24.990     -45.223
  H       14.132      21.981     -41.524
  H       12.733      23.922     -44.495
  H       13.123      21.192     -45.020
  H       17.429      25.538     -47.251
  H       12.660      20.572     -42.710
  H       15.714      25.349     -47.420
  H       10.186      22.396     -42.946
  H       10.052      21.209     -40.887
  H       11.804      21.333     -40.611
  P       11.303      18.508     -43.977
  C       11.119      17.794     -41.498
  O       11.959      17.938     -42.630
  O       12.152      18.365     -45.193
  O        9.926      17.704     -44.041
  H        9.489      17.757     -44.928
  H       11.688      17.406     -40.679
  H       10.321      17.119     -41.729
  H       10.713      18.748     -41.231

 6  7  8  9  10  11  12  13  14  15  26  29  33  34 0
 6-311+G(2d,p)
 ****
 36  38  39  40  41 0
 6-311+G(2d,p)
 ****
 1  2  3  4  5  16  17  18  19  20  21  22  23  24  25 0
 3-21G
 ****
 27  28  30  31  32  35  37  42  43  44  45  46  47 0
 3-21G
 ****
 48  49 0
 3-21G
 ****


