%nproc=1
%NoSave
%Mem=1900MB
#P OB98/GEN NMR

erre ene a

0 1
  C      -27.436      75.705     358.970
  O      -28.367      74.987     358.188
  H      -26.663      76.113     358.312
  H      -26.961      75.043     359.698
  H      -27.933      76.532     359.487
  P      -29.558      74.255     358.971
  C      -29.211      71.956     357.810
  O      -30.072      73.067     358.020
  C      -29.762      71.087     356.679
  O      -31.050      70.556     357.052
  C      -29.999      71.843     355.375
  O      -28.803      72.054     354.651
  C      -30.956      70.900     354.669
  O      -30.255      69.851     353.985
  C      -31.798      70.339     355.838
  N      -33.131      70.936     355.897
  C      -34.164      70.150     355.404
  O      -33.995      69.021     354.940
  N      -35.411      70.718     355.422
  C      -35.704      71.983     355.841
  O      -36.831      72.465     355.763
  C      -34.569      72.766     356.363
  C      -33.354      72.225     356.356
  O      -30.744      75.327     358.916
  O      -29.236      73.841     360.368
  H      -30.824      75.780     359.776
  H      -30.930      69.342     353.497
  H      -36.172      70.165     355.059
  H      -34.773      73.771     356.708
  H      -32.496      72.781     356.719
  H      -31.920      69.252     355.732
  H      -31.552      71.418     353.916
  H      -30.515      72.791     355.577
  H      -29.070      70.250     356.516
  H      -29.155      71.358     358.723
  H      -28.208      72.321     357.563
  P      -28.873      72.878     353.276
  C      -28.069      70.955     351.673
  O      -27.804      72.208     352.284
  O      -28.188      74.259     353.709
  O      -30.251      73.005     352.719
  H      -27.464      74.145     354.349
  H      -27.242      70.679     351.052
  H      -28.954      71.029     351.076
  H      -28.210      70.212     352.430

 6  7  8  9  10  11  12  13  14  15  16  27  31  32  33  34  35 0
 6-311+G(2d,p)
 ****
 36  37 0
 6-311+G(2d,p)
 ****
 1  2  3  4  5  17  18  19  20  21  22  23  24  25 0
 3-21G
 ****
 26  28  29  30  38  39  40  41  42  43  44  45 0
 3-21G
 ****


