%nproc=1
%NoSave
%Mem=1900MB
#P OB98/GEN NMR

erre ene a

0 1
  C       21.568      34.551       3.805
  O       20.411      34.789       4.589
  P       19.776      36.252       4.694
  C       20.469      38.523       5.814
  O       20.746      37.160       5.577
  C       21.492      39.070       6.820
  O       21.263      38.496       8.123
  C       22.922      38.739       6.402
  O       23.492      39.815       5.674
  C       23.603      38.478       7.732
  O       23.981      39.720       8.356
  C       22.469      37.798       8.536
  N       22.250      36.352       8.341
  C       23.215      35.446       8.771
  O       24.250      35.771       9.343
  N       22.956      34.126       8.494
  C       21.833      33.644       7.886
  O       21.723      32.511       7.432
  C       20.747      34.611       7.709
  C       21.007      35.902       7.917
  O       18.511      36.029       5.646
  O       19.396      36.881       3.393
  H       23.173      40.256       8.443
  H       17.693      35.948       5.118
  H       23.715      33.477       8.678
  H       19.789      34.249       7.361
  H       20.228      36.642       7.754
  H       22.598      37.963       9.612
  H       24.524      37.913       7.599
  H       22.940      37.813       5.812
  H       21.360      40.157       6.903
  H       19.452      38.637       6.204
  H       20.521      39.087       4.877
  P       23.968      39.584       4.165
  C       25.729      38.064       3.087
  O       25.307      38.708       4.274
  O       24.073      40.814       3.326
  O       22.875      38.562       3.588
  H       22.194      39.055       3.084
  H       26.730      37.657       3.245
  H       25.759      38.774       2.254
  H       25.047      37.243       2.851
  H       21.833      33.516       3.865
  H       22.377      35.148       4.172
  H       21.368      34.809       2.786

 3  4  5  6  7  8  9  10  11  12  13  23  28  29  30  31  32 0
 6-311+G(2d,p)
 ****
 33  34 0
 6-311+G(2d,p)
 ****
 1  2  14  15  16  17  18  19  20  21  22  24  25  26  27 0
 3-21G
 ****
 35  36  37  38  39  40  41  42  43  44  45 0
 3-21G
 ****


