%nproc=1
%NoSave
%Mem=1900MB
#P OB98/GEN NMR

erre ene a

0 1
  C      657.811    -897.260     336.090
  O      659.225    -897.270     335.857
  P      659.789    -897.860     334.488
  C      661.926    -897.640     333.066
  O      661.210    -897.170     334.206
  C      662.730    -896.480     332.430
  O      661.808    -895.590     331.715
  C      663.473    -895.620     333.403
  O      664.655    -896.270     333.831
  C      663.694    -894.360     332.558
  O      664.821    -894.530     331.682
  C      662.386    -894.290     331.761
  N      659.928    -889.930     330.802
  C      660.905    -890.570     330.142
  N      661.538    -891.710     330.497
  C      661.081    -892.180     331.656
  C      660.095    -891.620     332.459
  C      659.479    -890.450     331.967
  N      658.407    -889.840     332.604
  N      659.898    -892.390     333.603
  C      660.743    -893.370     333.482
  N      661.438    -893.330     332.308
  O      658.836    -897.850     333.330
  O      660.185    -899.380     334.866
  H      664.805    -893.840     331.005
  H      659.690    -900.000     334.325
  H      661.220    -890.110     329.216
  H      660.910    -894.170     334.201
  H      662.576    -894.010     330.691
  H      663.886    -893.490     333.172
  H      662.816    -895.350     334.264
  H      663.389    -896.920     331.654
  H      661.222    -898.070     332.343
  H      657.960    -889.070     332.104
  H      657.908    -890.350     333.314
  H      662.621    -898.430     333.391
  P      665.344    -895.850     335.222
  C      666.892    -897.010     336.908
  O      666.416    -896.980     335.582
  O      664.386    -895.540     336.331
  O      666.248    -894.590     334.857
  H      666.303    -893.990     335.593
  H      667.642    -896.200     337.045
  H      667.351    -897.970     337.084
  H      666.071    -896.850     337.624
  H      657.611    -896.833     337.050
  H      657.438    -898.262     336.061
  H      657.329    -896.678     335.333

 3  4  5  6  7  8  9  10  11  12  22  25  29  30  31  32 0
 6-311+G(2d,p)
 ****
 33  36  37 0
 6-311+G(2d,p)
 ****
 1  2  13  14  15  16  17  18  19  20  21  23  24  26 0
 3-21G
 ****
 27  28  34  35  38  39  40  41  42  43  44  45  46  47  48 0
 3-21G
 ****


