%nproc=1
%NoSave
%Mem=1900MB
#P OB98/GEN NMR

erre ene a

0 1
  C       -6.198     453.608     -35.659
  O       -6.918     454.624     -36.337
  P       -7.320     454.453     -37.879
  C       -9.634     453.827     -36.950
  O       -8.629     453.522     -37.909
  C      -10.894     453.005     -37.207
  O      -11.550     453.507     -38.395
  C      -10.613     451.523     -37.434
  O      -11.676     450.752     -36.863
  C      -10.662     451.355     -38.945
  O      -11.010     450.010     -39.312
  C      -11.697     452.419     -39.329
  N      -12.497     451.594     -44.332
  C      -12.862     450.892     -43.237
  N      -12.593     451.157     -41.939
  C      -11.918     452.311     -41.824
  C      -11.479     453.136     -42.849
  C      -11.795     452.737     -44.159
  N      -11.434     453.461     -45.274
  N      -10.790     454.220     -42.341
  C      -10.823     454.059     -41.037
  N      -11.503     452.927     -40.671
  O       -6.219     453.997     -38.771
  O       -7.885     455.884     -38.311
  H      -10.829     449.920     -40.273
  H       -7.608     456.095     -39.223
  H      -13.444     449.994     -43.427
  H      -10.368     454.723     -40.315
  H      -12.721     452.037     -39.244
  H       -9.678     451.578     -39.372
  H       -9.650     451.201     -37.017
  H      -11.582     453.141     -36.366
  H       -9.880     454.894     -37.034
  H      -11.806     453.167     -46.160
  H      -11.065     454.396     -45.138
  H       -9.248     453.641     -35.943
  P      -11.308     449.239     -36.460
  C      -11.605     449.582     -33.897
  O      -10.727     449.343     -34.971
  O      -10.448     448.578     -37.487
  O      -12.767     448.598     -36.302
  H      -13.438     449.281     -36.088
  H      -11.023     449.658     -32.976
  H      -12.312     448.753     -33.796
  H      -12.154     450.519     -34.050
  H       -6.027     453.907     -34.646
  H       -5.259     453.450     -36.147
  H       -6.764     452.700     -35.672

 3  4  5  6  7  8  9  10  11  12  22  25  29  30  31  32 0
 6-311+G(2d,p)
 ****
 33  36  37 0
 6-311+G(2d,p)
 ****
 1  2  13  14  15  16  17  18  19  20  21  23  24  26 0
 3-21G
 ****
 27  28  34  35  38  39  40  41  42  43  44  45  46  47  48 0
 3-21G
 ****


