%nproc=1
%NoSave
%Mem=1900MB
#P OB98/GEN NMR

erre ene a

0 1
  C       46.749      54.068       9.078
  O       47.923      53.629       8.424
  H       46.871      55.122       9.343
  H       46.590      53.495       9.994
  H       45.879      53.972       8.422
  P       47.949      52.157       7.791
  C       49.357      51.092       9.673
  O       48.100      51.128       9.010
  C       49.303      50.105      10.836
  O       48.422      50.598      11.869
  C       48.765      48.731      10.454
  O       49.739      47.972       9.765
  C       48.380      48.183      11.819
  O       49.530      47.666      12.507
  C       47.837      49.447      12.523
  N       46.376      49.519      12.514
  C       45.717      48.874      13.556
  O       46.300      48.240      14.435
  N       44.350      48.958      13.539
  C       43.594      49.510      12.545
  O       42.366      49.479      12.532
  C       44.342      50.156      11.457
  C       45.677      50.132      11.491
  O       48.909      51.952       6.668
  O       46.436      51.926       7.314
  H       49.832      46.890      11.995
  H       46.386      52.011       6.344
  H       43.854      48.486      14.278
  H       43.778      50.617      10.658
  H       46.247      50.597      10.695
  H       48.174      49.475      13.567
  H       47.656      47.372      11.751
  H       47.857      48.839       9.849
  H       50.312      50.021      11.267
  H       49.582      52.093      10.055
  H       50.132      50.803       8.953
  P       49.284      46.906       8.661
  C       50.293      44.964      10.010
  O       49.122      45.486       9.390
  O       50.104      46.887       7.415
  O       47.770      47.315       8.335
  H       47.695      47.550       7.391
  H       50.067      44.020      10.461
  H       50.633      45.646      10.761
  H       51.058      44.834       9.274

 6  7  8  9  10  11  12  13  14  15  16  26  31  32  33  34  35 0
 6-311+G(2d,p)
 ****
 36  37 0
 6-311+G(2d,p)
 ****
 1  2  3  4  5  17  18  19  20  21  22  23  24  25 0
 3-21G
 ****
 27  28  29  30  38  39  40  41  42  43  44  45 0
 3-21G
 ****


