%nproc=1
%NoSave
%Mem=1900MB
#P OB98/GEN NMR

erre ene a

0 1
  C      -13.300      11.773       3.817
  O      -14.130      10.807       4.439
  P      -13.475       9.869       5.568
  C      -12.513      10.309       7.948
  O      -12.875      10.848       6.688
  C      -11.180      10.896       8.420
  O      -10.109      10.274       7.664
  C      -11.044      12.411       8.237
  O      -10.221      12.889       9.308
  C      -10.292      12.531       6.925
  O       -9.633      13.786       6.781
  C       -9.359      11.329       7.023
  N       -5.319      10.270       4.173
  C       -5.388      10.800       5.448
  N       -4.209      11.021       6.069
  N       -6.508      11.084       6.059
  C       -7.604      10.793       5.319
  C       -7.665      10.305       4.035
  C       -6.421       9.960       3.386
  O       -6.316       9.410       2.293
  N       -8.956      10.227       3.587
  C       -9.679      10.589       4.628
  N       -8.906      10.898       5.715
  O      -12.178       9.287       4.838
  O      -14.362       8.793       6.110
  H      -10.277      14.488       7.005
  H      -12.364       8.419       4.430
  H       -4.427      10.055       3.761
  H      -10.755      10.642       4.655
  H       -8.469      11.535       7.632
  H      -10.991      12.421       6.087
  H       -3.311      10.797       5.671
  H      -12.001      12.939       8.226
  H       -4.232      11.378       7.017
  H      -11.037      10.623       9.472
  H      -12.401       9.225       7.850
  H      -13.305      10.511       8.676
  P      -10.396      14.416       9.764
  C      -12.228      15.732      11.035
  O      -11.911      14.608      10.239
  O      -10.344      15.210       8.372
  O       -9.345      14.916      10.699
  H       -9.945      16.089       8.512
  H      -13.296      15.942      10.939
  H      -11.666      16.618      10.725
  H      -12.005      15.510      12.082
  H      -13.868      12.319       3.093
  H      -12.482      11.282       3.332
  H      -12.922      12.448       4.556

 3  4  5  6  7  8  9  10  11  12  23  26  30  31 0
 6-311+G(2d,p)
 ****
 33  35  36  37  38 0
 6-311+G(2d,p)
 ****
 1  2  13  14  15  16  17  18  19  20  21  22  24  25 0
 3-21G
 ****
 27  28  29  32  34  39  40  41  42  43  44  45  46  47  48  49 0
 3-21G
 ****


