%nproc=1
%NoSave
%Mem=1900MB
#P OB98/GEN NMR

erre ene a

0 1
  C     -262.555     330.900     173.065
  O     -262.978     330.034     172.026
  P     -264.355     329.231     172.232
  C     -263.166     326.881     172.239
  O     -263.948     327.844     172.931
  C     -263.192     325.547     172.993
  O     -262.475     325.672     174.237
  C     -264.585     325.060     173.377
  O     -265.276     324.503     172.267
  C     -264.254     324.070     174.488
  O     -263.833     322.813     173.929
  C     -263.071     324.764     175.189
  N     -263.454     325.463     176.415
  C     -263.442     324.707     177.584
  O     -263.122     323.519     177.613
  N     -263.823     325.366     178.726
  C     -264.268     326.652     178.795
  O     -264.642     327.183     179.839
  C     -264.297     327.392     177.526
  C     -263.893     326.772     176.410
  O     -264.696     328.841     170.720
  O     -265.397     330.028     172.936
  H     -263.894     328.775     170.174
  H     -264.599     322.465     173.432
  H     -263.797     324.845     179.588
  H     -264.654     328.413     177.540
  H     -263.914     327.299     175.464
  H     -262.296     324.031     175.444
  H     -265.113     323.868     175.140
  H     -265.169     325.893     173.788
  H     -262.678     324.797     172.376
  H     -262.137     327.240     172.167
  H     -263.568     326.758     171.230
  P     -266.871     324.353     172.415
  C     -266.651     321.746     172.354
  O     -267.127     322.891     173.024
  O     -267.308     324.226     170.880
  O     -267.510     325.482     173.152
  H     -266.718     323.648     170.363
  H     -266.602     320.919     173.064
  H     -265.655     321.915     171.934
  H     -267.345     321.482     171.548
  H     -261.630     331.362     172.790
  H     -262.418     330.337     173.965
  H     -263.297     331.654     173.225

 3  4  5  6  7  8  9  10  11  12  13  24  28  29  30  31  32 0
 6-311+G(2d,p)
 ****
 33  34 0
 6-311+G(2d,p)
 ****
 1  2  14  15  16  17  18  19  20  21  22  23  25  26  27 0
 3-21G
 ****
 35  36  37  38  39  40  41  42  43  44  45 0
 3-21G
 ****


