%nproc=1
%NoSave
%Mem=1900MB
#P OB98/GEN NMR

erre ene a

0 1
  C       51.470    -174.234    -124.671
  O       50.645    -175.134    -123.958
  H       51.809    -173.452    -123.986
  H       50.908    -173.770    -125.486
  H       52.343    -174.758    -125.070
  P       49.995    -176.329    -124.811
  C       48.416    -176.451    -126.866
  O       48.954    -175.644    -125.826
  C       47.764    -175.578    -127.934
  O       48.754    -174.785    -128.622
  C       47.002    -176.356    -129.001
  O       45.694    -176.676    -128.559
  C       47.007    -175.358    -130.152
  O       45.986    -174.354    -129.971
  C       48.406    -174.738    -130.033
  N       52.180    -173.995    -133.308
  C       51.280    -173.100    -132.763
  N       51.380    -171.817    -133.177
  N       50.355    -173.430    -131.904
  C       50.330    -174.757    -131.627
  C       51.165    -175.743    -132.100
  C       52.222    -175.352    -133.007
  O       53.099    -176.086    -133.458
  N       50.837    -176.966    -131.568
  C       49.787    -176.720    -130.806
  N       49.438    -175.393    -130.814
  O       49.043    -177.068    -123.754
  O       50.964    -177.283    -125.421
  H       45.113    -174.785    -129.969
  H       49.082    -178.031    -123.918
  H       52.891    -173.681    -133.940
  H       49.253    -177.463    -130.228
  H       48.411    -173.684    -130.332
  H       46.795    -175.844    -131.106
  H       51.860    -171.563    -134.028
  H       47.552    -177.257    -129.299
  H       50.674    -171.175    -132.835
  H       47.093    -174.875    -127.418
  H       47.668    -177.124    -126.438
  H       49.221    -177.043    -127.314
  P       44.900    -177.837    -129.325
  C       43.649    -178.096    -131.589
  O       44.458    -177.270    -130.762
  O       43.519    -177.921    -128.516
  O       45.589    -179.158    -129.343
  H       43.517    -178.718    -127.952
  H       43.438    -177.586    -132.506
  H       42.731    -178.316    -131.085
  H       44.168    -179.008    -131.799

 6  7  8  9  10  11  12  13  14  15  26  29  33  34 0
 6-311+G(2d,p)
 ****
 36  38  39  40  41 0
 6-311+G(2d,p)
 ****
 1  2  3  4  5  16  17  18  19  20  21  22  23  24  25 0
 3-21G
 ****
 27  28  30  31  32  35  37  42  43  44  45  46  47 0
 3-21G
 ****
 48  49 0
 3-21G
 ****


