%nproc=1
%NoSave
%Mem=1900MB
#P OB98/GEN NMR

erre ene a

0 1
  C      -42.550    -194.390     -98.496
  O      -41.651    -193.505     -97.856
  P      -40.364    -192.946     -98.624
  C      -38.597    -193.897     -97.031
  O      -39.210    -192.715     -97.531
  C      -37.104    -193.687     -96.788
  O      -36.567    -194.854     -96.104
  C      -36.269    -193.479     -98.060
  O      -35.214    -192.574     -97.719
  C      -35.691    -194.862     -98.312
  O      -34.534    -194.837     -99.140
  C      -35.439    -195.317     -96.881
  N      -32.395    -199.179     -95.484
  C      -32.192    -197.846     -95.526
  N      -33.044    -196.884     -95.936
  C      -34.213    -197.418     -96.326
  C      -34.555    -198.761     -96.368
  C      -33.588    -199.668     -95.903
  N      -33.790    -201.029     -95.819
  N      -35.828    -198.917     -96.886
  C      -36.241    -197.694     -97.149
  N      -35.324    -196.753     -96.767
  O      -40.614    -191.781     -99.522
  O      -39.830    -194.208     -99.452
  H      -33.768    -194.582     -98.590
  H      -40.039    -194.095    -100.400
  H      -31.220    -197.505     -95.184
  H      -37.182    -197.433     -97.611
  H      -34.532    -194.869     -96.458
  H      -36.444    -195.490     -98.804
  H      -36.843    -193.101     -98.912
  H      -36.984    -192.833     -96.109
  H      -38.734    -194.688     -97.774
  H      -33.083    -201.570     -95.348
  H      -34.741    -201.388     -95.869
  H      -39.090    -194.206     -96.103
  P      -35.270    -191.053     -98.224
  C      -33.331    -191.920     -99.654
  O      -33.909    -190.790     -99.025
  O      -35.604    -190.043     -97.177
  O      -36.374    -191.088     -99.387
  H      -36.684    -190.179     -99.570
  H      -32.775    -192.503     -98.915
  H      -32.643    -191.580    -100.433
  H      -34.099    -192.552    -100.110
  H      -43.339    -194.647     -97.821
  H      -42.029    -195.277     -98.790
  H      -42.962    -193.915     -99.362

 3  4  5  6  7  8  9  10  11  12  22  25  29  30  31  32 0
 6-311+G(2d,p)
 ****
 33  36  37 0
 6-311+G(2d,p)
 ****
 1  2  13  14  15  16  17  18  19  20  21  23  24  26 0
 3-21G
 ****
 27  28  34  35  38  39  40  41  42  43  44  45  46  47  48 0
 3-21G
 ****


