%nproc=1
%NoSave
%Mem=1900MB
#P OB98/GEN NMR

erre ene a

0 1
  C       46.055    -100.886    -130.814
  O       45.572    -100.412    -132.058
  P       45.632    -101.391    -133.326
  C       47.577    -102.017    -134.977
  O       47.183    -101.563    -133.696
  C       49.053    -102.428    -134.966
  O       49.208    -103.606    -134.128
  C       49.628    -102.769    -136.347
  O       50.994    -102.336    -136.356
  C       49.549    -104.285    -136.379
  O       50.446    -104.860    -137.315
  C       49.862    -104.618    -134.916
  N       49.414    -105.951    -134.514
  C       50.099    -107.049    -135.024
  O       51.043    -106.964    -135.807
  N       49.639    -108.276    -134.621
  C       48.550    -108.509    -133.833
  O       48.172    -109.630    -133.518
  C       47.837    -107.313    -133.364
  C       48.300    -106.111    -133.712
  O       45.060    -100.441    -134.478
  O       44.889    -102.668    -133.134
  H       45.326     -99.512    -134.371
  H       50.363    -105.829    -137.256
  H       50.145    -109.086    -134.949
  H       46.958    -107.457    -132.749
  H       47.791    -105.215    -133.379
  H       50.939    -104.522    -134.732
  H       48.532    -104.590    -136.650
  H       49.079    -102.287    -137.160
  H       49.631    -101.620    -134.500
  H       47.437    -101.215    -135.706
  H       46.941    -102.857    -135.275
  P       51.371    -101.032    -137.220
  C       50.621    -100.333    -139.628
  O       51.029    -101.356    -138.750
  O       52.973    -101.123    -137.185
  O       50.852     -99.743    -136.674
  H       53.305    -102.007    -137.407
  H       50.764    -100.674    -140.657
  H       51.206     -99.421    -139.480
  H       49.561    -100.117    -139.474
  H       45.947    -100.121    -130.074
  H       47.088    -101.147    -130.909
  H       45.495    -101.749    -130.519

 3  4  5  6  7  8  9  10  11  12  13  24  28  29  30  31  32 0
 6-311+G(2d,p)
 ****
 33  34 0
 6-311+G(2d,p)
 ****
 1  2  14  15  16  17  18  19  20  21  22  23  25  26  27 0
 3-21G
 ****
 35  36  37  38  39  40  41  42  43  44  45 0
 3-21G
 ****


