%nproc=1
%NoSave
%Mem=1900MB
#P OB98/GEN NMR

erre ene a

0 1
  C       86.366      61.678     -97.614
  O       85.648      60.480     -97.378
  P       84.370      60.560     -96.408
  C       82.533      60.731     -98.237
  O       83.250      61.392     -97.201
  C       81.092      60.439     -97.816
  O       80.463      61.677     -97.405
  C       80.234      59.814     -98.917
  O       79.357      58.867     -98.304
  C       79.414      60.981     -99.433
  O       78.201      60.547    -100.042
  C       79.235      61.810     -98.151
  N       78.933      63.209     -98.437
  C       77.582      63.556     -98.540
  O       76.716      62.683     -98.470
  N       77.250      64.867     -98.772
  C       78.185      65.736     -98.990
  N       77.807      67.024     -99.212
  C       79.620      65.387     -99.012
  C       79.919      64.127     -98.710
  O       84.849      61.577     -95.270
  O       83.930      59.248     -95.847
  H       77.806      59.849     -99.473
  H       84.441      61.356     -94.412
  H       80.359      66.144     -99.236
  H       80.945      63.786     -98.678
  H       78.426      61.398     -97.535
  H       79.993      61.544    -100.175
  H       80.829      59.321     -99.690
  H       81.118      59.783     -96.937
  H       76.818      67.234     -99.206
  H       83.024      59.779     -98.457
  H       78.467      67.767     -99.392
  H       82.555      61.344     -99.142
  P       78.920      57.590     -99.169
  C       80.473      55.905     -98.012
  O       80.214      56.642     -99.190
  O       78.940      58.190    -100.657
  O       77.611      56.942     -98.867
  H       78.625      57.517    -101.286
  H       81.292      55.208     -98.209
  H       79.589      55.337     -97.712
  H       80.777      56.582     -97.209
  H       87.185      61.479     -98.273
  H       86.739      62.059     -96.686
  H       85.716      62.401     -98.061

 3  4  5  6  7  8  9  10  11  12  13  21  23  27  28  29  30  32 0
 6-311+G(2d,p)
 ****
 34  35 0
 6-311+G(2d,p)
 ****
 1  2  14  15  16  17  18  19  20  22  24  25  26 0
 3-21G
 ****
 31  33  36  37  38  39  40  41  42  43  44  45  46 0
 3-21G
 ****


