%nproc=1
%NoSave
%Mem=1900MB
#P OB98/GEN NMR

erre ene a

0 1
  C     -369.375    -578.043     265.867
  O     -370.246    -578.183     264.761
  P     -369.828    -579.139     263.545
  C     -368.991    -577.149     262.086
  O     -369.875    -578.240     262.208
  C     -369.481    -576.143     261.028
  O     -369.382    -576.785     259.734
  C     -370.941    -575.727     261.176
  O     -371.155    -574.522     260.435
  C     -371.673    -576.873     260.504
  O     -372.988    -576.521     260.105
  C     -370.706    -577.246     259.342
  N     -370.683    -578.695     259.096
  C     -370.484    -579.103     257.775
  O     -370.251    -578.313     256.857
  N     -370.641    -580.443     257.538
  C     -371.024    -581.378     258.455
  O     -371.458    -582.488     258.168
  C     -370.986    -580.931     259.865
  C     -370.854    -579.629     260.118
  O     -371.104    -580.092     263.396
  O     -368.573    -579.907     263.739
  H     -373.301    -577.244     259.496
  H     -370.952    -580.932     263.864
  H     -370.631    -580.719     256.553
  H     -371.141    -581.671     260.634
  H     -370.873    -579.264     261.137
  H     -370.984    -576.749     258.407
  H     -371.748    -577.706     261.199
  H     -371.263    -575.589     262.212
  H     -368.828    -575.270     261.022
  H     -367.985    -577.515     261.836
  H     -368.889    -576.630     263.053
  P     -372.284    -573.499     260.930
  C     -373.243    -573.589     258.563
  O     -372.835    -572.763     259.624
  O     -371.901    -572.616     262.077
  O     -373.489    -574.483     261.324
  H     -374.122    -574.026     261.901
  H     -374.031    -573.085     257.992
  H     -373.630    -574.560     258.917
  H     -372.391    -573.772     257.883
  H     -369.808    -577.373     266.580
  H     -368.436    -577.652     265.534
  H     -369.222    -578.999     266.323

 3  4  5  6  7  8  9  10  11  12  13  23  28  29  30  31  32 0
 6-311+G(2d,p)
 ****
 33  34 0
 6-311+G(2d,p)
 ****
 1  2  14  15  16  17  18  19  20  21  22  24  25  26  27 0
 3-21G
 ****
 35  36  37  38  39  40  41  42  43  44  45 0
 3-21G
 ****


