%nproc=1
%NoSave
%Mem=1900MB
#P OB98/GEN NMR

erre ene a

0 1
  C      156.449    -662.337     -60.523
  O      156.814    -662.083     -59.170
  P      156.979    -660.561     -58.696
  C      156.916    -660.958     -56.077
  O      157.604    -660.516     -57.225
  C      157.527    -660.297     -54.833
  O      158.848    -660.819     -54.586
  C      157.663    -658.778     -54.964
  O      156.473    -658.106     -54.574
  C      158.844    -658.486     -54.055
  O      158.437    -658.512     -52.670
  C      159.758    -659.697     -54.370
  N      160.677    -659.597     -55.528
  C      161.333    -658.400     -55.789
  O      161.206    -657.370     -55.116
  N      162.181    -658.400     -56.873
  C      162.560    -659.490     -57.593
  O      163.364    -659.441     -58.517
  C      161.960    -660.759     -57.173
  C      161.050    -660.757     -56.190
  O      155.478    -660.064     -58.486
  O      157.731    -659.693     -59.662
  H      157.724    -657.862     -52.577
  H      155.259    -659.358     -59.121
  H      162.605    -657.522     -57.117
  H      162.263    -661.659     -57.689
  H      160.600    -661.694     -55.877
  H      160.382    -659.948     -53.491
  H      159.254    -657.499     -54.236
  H      157.943    -658.506     -55.980
  H      156.903    -660.542     -53.960
  H      156.965    -662.043     -55.983
  H      155.859    -660.695     -56.165
  P      156.017    -656.779     -55.340
  C      153.532    -657.407     -55.472
  O      154.495    -656.535     -54.909
  O      156.298    -656.748     -56.805
  O      156.791    -655.608     -54.567
  H      157.628    -655.371     -55.021
  H      152.579    -657.243     -54.986
  H      153.839    -658.455     -55.325
  H      153.433    -657.207     -56.544
  H      156.380    -663.393     -60.681
  H      157.191    -661.926     -61.176
  H      155.502    -661.883     -60.728

 3  4  5  6  7  8  9  10  11  12  13  23  28  29  30  31  32 0
 6-311+G(2d,p)
 ****
 33  34 0
 6-311+G(2d,p)
 ****
 1  2  14  15  16  17  18  19  20  21  22  24  25  26  27 0
 3-21G
 ****
 35  36  37  38  39  40  41  42  43  44  45 0
 3-21G
 ****


