%nproc=1
%NoSave
%Mem=1900MB
#P OB98/GEN NMR

erre ene a

0 1
  C     -480.763     -24.560     146.744
  O     -480.899     -24.582     148.153
  H     -480.938     -23.542     146.390
  H     -481.496     -25.230     146.286
  H     -479.750     -24.865     146.456
  P     -480.654     -25.991     148.883
  C     -483.218     -26.230     149.259
  O     -482.024     -26.815     148.748
  C     -484.098     -27.310     149.866
  O     -484.353     -28.344     148.890
  C     -483.482     -28.012     151.064
  O     -483.567     -27.252     152.250
  C     -484.294     -29.298     151.104
  O     -485.542     -29.110     151.792
  C     -484.551     -29.581     149.619
  N     -484.266     -34.481     148.188
  C     -485.310     -33.710     148.571
  N     -485.300     -32.408     148.933
  C     -484.062     -31.891     148.821
  C     -482.907     -32.554     148.435
  C     -483.037     -33.910     148.106
  N     -481.978     -34.697     147.728
  N     -481.823     -31.698     148.489
  C     -482.309     -30.542     148.888
  N     -483.665     -30.610     149.102
  O     -480.596     -25.595     150.432
  O     -479.428     -26.720     148.445
  H     -485.321     -29.031     152.742
  H     -479.663     -25.547     150.719
  H     -486.272     -34.211     148.621
  H     -481.739     -29.636     149.049
  H     -485.576     -29.912     149.429
  H     -483.750     -30.091     151.612
  H     -482.430     -28.272     150.844
  H     -485.071     -26.859     150.144
  H     -483.754     -25.738     148.441
  H     -482.956     -25.474     150.013
  H     -482.132     -35.676     147.572
  H     -481.039     -34.313     147.774
  P     -482.306     -27.259     153.247
  C     -483.423     -28.751     155.076
  O     -482.385     -28.611     154.108
  O     -482.643     -26.112     154.303
  O     -480.993     -27.033     152.569
  H     -481.812     -25.656     154.571
  H     -483.335     -29.702     155.559
  H     -484.374     -28.684     154.591
  H     -483.339     -27.972     155.805

 6  7  8  9  10  11  12  13  14  15  25  28  32  33  34  35 0
 6-311+G(2d,p)
 ****
 36  37  40 0
 6-311+G(2d,p)
 ****
 1  2  3  4  5  16  17  18  19  20  21  22  23  24 0
 3-21G
 ****
 26  27  29  30  31  38  39 41  42  43  44  45  46  47  48 0
 3-21G
 ****


