%nproc=1
%NoSave
%Mem=1900MB
#P OB98/GEN NMR

erre ene a

0 1
  C        9.567      39.064       5.652
  O        9.324      37.961       4.801
  H       10.291      39.726       5.171
  H        9.983      38.717       6.602
  H        8.641      39.619       5.831
  P        8.161      36.951       5.238
  C        9.970      35.154       5.866
  O        8.813      35.885       6.250
  C       10.886      34.958       7.072
  O       11.321      36.224       7.607
  C       10.214      34.277       8.252
  O        9.966      32.908       8.025
  C       11.236      34.548       9.345
  O       12.345      33.643       9.253
  C       11.679      35.992       8.997
  N       11.086      36.985       9.881
  C       11.503      36.938      11.217
  O       12.330      36.101      11.580
  N       10.950      37.821      12.109
  C       10.079      38.690      11.703
  N        9.563      39.531      12.639
  C        9.632      38.792      10.300
  C       10.166      37.914       9.454
  O        7.933      36.086       3.913
  O        6.927      37.595       5.777
  H       12.919      33.833      10.020
  H        8.747      35.686       3.564
  H        8.910      39.539      10.005
  H        9.892      37.919       8.407
  H       12.770      36.086       9.062
  H       10.812      34.429      10.343
  H        9.290      34.806       8.518
  H       11.772      34.404       6.738
  H        9.877      39.419      13.595
  H       10.501      35.660       5.055
  H        8.855      40.224      12.446
  H        9.635      34.183       5.485
  P        8.486      32.392       7.688
  C        8.363      31.061       9.887
  O        7.782      32.095       9.100
  O        8.413      31.269       6.709
  O        7.734      33.722       7.208
  H        7.702      34.433       7.872
  H        7.813      30.955      10.799
  H        9.379      31.311      10.111
  H        8.334      30.140       9.343

 6  7  8  9  10  11  12  13  14  15  16  26  30  31  32  33  35 0
 6-311+G(2d,p)
 ****
 37  38 0
 6-311+G(2d,p)
 ****
 1  2  3  4  5  17  18  19  20  21  22  23  24  25 0
 3-21G
 ****
 27  28  29  34  36  39  40  41  42  43  44  45  46 0
 3-21G
 ****


