%nproc=1
%NoSave
%Mem=1900MB
#P OB98/GEN NMR

erre ene a

0 1
  C     -396.818    -482.126     354.800
  O     -396.200    -480.970     354.272
  H     -396.956    -482.853     353.993
  H     -397.797    -481.876     355.216
  H     -396.189    -482.575     355.574
  P     -395.869    -479.792     355.310
  C     -394.643    -478.335     353.536
  O     -395.739    -478.451     354.439
  C     -394.525    -476.891     353.052
  O     -395.686    -476.553     352.264
  C     -394.468    -475.858     354.168
  O     -393.179    -475.768     354.748
  C     -394.888    -474.596     353.425
  O     -393.784    -473.998     352.740
  C     -395.907    -475.132     352.409
  N     -399.886    -472.000     351.830
  C     -398.675    -472.036     351.235
  N     -397.672    -472.922     351.434
  C     -398.028    -473.841     352.347
  C     -399.225    -473.924     353.041
  C     -400.189    -472.947     352.748
  N     -401.413    -472.884     353.383
  N     -399.198    -474.979     353.931
  C     -398.008    -475.531     353.772
  N     -397.273    -474.878     352.823
  O     -394.361    -480.111     355.742
  O     -396.783    -479.704     356.486
  H     -393.256    -473.530     353.418
  H     -394.359    -480.632     356.568
  H     -398.483    -471.252     350.509
  H     -397.637    -476.390     354.318
  H     -395.779    -474.681     351.417
  H     -395.291    -473.848     354.112
  H     -395.223    -476.085     354.933
  H     -393.641    -476.814     352.406
  H     -394.813    -478.992     352.677
  H     -393.726    -478.647     354.050
  H     -402.045    -472.141     353.136
  H     -401.604    -473.528     354.145
  P     -393.056    -475.741     356.344
  C     -390.914    -477.212     356.232
  O     -391.522    -476.025     356.719
  O     -393.810    -477.081     356.795
  O     -393.634    -474.527     356.993
  H     -394.712    -476.877     357.101
  H     -389.898    -477.255     356.566
  H     -390.938    -477.212     355.162
  H     -391.447    -478.063     356.601

 6  7  8  9  10  11  12  13  14  15  25  28  32  33  34  35 0
 6-311+G(2d,p)
 ****
 36  37  40 0
 6-311+G(2d,p)
 ****
 1  2  3  4  5  16  17  18  19  20  21  22  23  24 0
 3-21G
 ****
 26  27  29  30  31  38  39 41  42  43  44  45  46  47  48 0
 3-21G
 ****


