%nproc=1
%NoSave
%Mem=1900MB
#P OB98/GEN NMR

erre ene a

0 1
  C      -15.178     -16.057      29.322
  O      -15.871     -17.286      29.244
  H      -15.500     -15.419      28.495
  H      -14.103     -16.235      29.230
  H      -15.393     -15.547      30.265
  P      -15.802     -18.239      30.533
  C      -14.242     -19.779      29.142
  O      -15.368     -19.692      30.002
  C      -13.741     -21.218      29.073
  O      -13.469     -21.721      30.398
  C      -14.723     -22.196      28.436
  O      -14.637     -22.173      27.018
  C      -14.210     -23.513      28.993
  O      -13.025     -23.916      28.273
  C      -13.841     -23.128      30.432
  N      -15.821     -26.226      33.924
  C      -14.743     -26.414      33.082
  N      -14.106     -27.601      33.179
  N      -14.327     -25.525      32.219
  C      -15.073     -24.395      32.215
  C      -16.167     -24.094      32.995
  C      -16.605     -25.080      33.955
  O      -17.549     -24.956      34.731
  N      -16.664     -22.851      32.707
  C      -15.887     -22.410      31.739
  N      -14.908     -23.311      31.401
  O      -17.346     -18.421      30.921
  O      -15.013     -17.703      31.679
  H      -12.719     -24.750      28.672
  H      -17.548     -17.847      31.683
  H      -16.106     -26.948      34.562
  H      -15.985     -21.448      31.255
  H      -12.976     -23.687      30.803
  H      -14.933     -24.324      28.891
  H      -14.388     -28.339      33.806
  H      -15.749     -22.024      28.783
  H      -13.311     -27.760      32.574
  H      -12.790     -21.214      28.525
  H      -13.447     -19.134      29.530
  H      -14.529     -19.435      28.144
  P      -15.614     -23.133      26.183
  C      -13.551     -24.408      25.265
  O      -14.757     -23.723      24.959
  O      -16.608     -22.096      25.479
  O      -16.359     -24.139      26.990
  H      -17.504     -22.184      25.859
  H      -13.091     -24.743      24.359
  H      -13.768     -25.251      25.887
  H      -12.886     -23.746      25.780

 6  7  8  9  10  11  12  13  14  15  26  29  33  34 0
 6-311+G(2d,p)
 ****
 36  38  39  40  41 0
 6-311+G(2d,p)
 ****
 1  2  3  4  5  16  17  18  19  20  21  22  23  24  25 0
 3-21G
 ****
 27  28  30  31  32  35  37  42  43  44  45  46  47 0
 3-21G
 ****
 48  49 0
 3-21G
 ****


