%nproc=1
%NoSave
%Mem=1900MB
#P OB98/GEN NMR

erre ene a

0 1
  C     -366.688     -16.284    -169.471
  O     -365.374     -15.772    -169.395
  H     -366.634     -17.374    -169.559
  H     -367.199     -15.888    -170.352
  H     -367.256     -16.035    -168.570
  P     -365.167     -14.205    -169.125
  C     -364.436     -14.670    -166.697
  O     -365.343     -13.980    -167.546
  C     -363.640     -13.665    -165.864
  O     -364.497     -13.033    -164.888
  C     -362.499     -14.294    -165.070
  O     -361.407     -14.601    -165.914
  C     -362.241     -13.201    -164.041
  O     -361.464     -12.135    -164.605
  C     -363.682     -12.720    -163.735
  N     -364.234     -13.319    -162.518
  C     -363.573     -13.017    -161.331
  O     -362.577     -12.294    -161.276
  N     -364.072     -13.613    -160.202
  C     -365.082     -14.533    -160.167
  O     -365.350     -15.205    -159.177
  C     -365.789     -14.755    -161.437
  C     -365.328     -14.160    -162.543
  O     -365.968     -13.288    -169.988
  O     -363.594     -13.990    -169.342
  H     -363.440     -13.604    -170.226
  H     -361.578     -11.364    -164.016
  H     -363.573     -13.436    -159.344
  H     -366.638     -15.429    -161.439
  H     -365.815     -14.334    -163.496
  H     -363.702     -11.627    -163.618
  H     -361.698     -13.571    -163.171
  H     -362.854     -15.193    -164.548
  H     -363.260     -12.887    -166.538
  H     -363.749     -15.250    -167.323
  H     -364.998     -15.353    -166.053
  P     -360.362     -15.752    -165.532
  C     -361.452     -17.598    -166.937
  O     -361.122     -17.160    -165.627
  O     -359.616     -15.532    -164.258
  O     -359.357     -15.800    -166.782
  H     -358.438     -15.719    -166.456
  H     -361.953     -18.542    -166.882
  H     -360.557     -17.702    -167.514
  H     -362.095     -16.880    -167.402

 6  7  8  9  10  11  12  13  14  15  16  27  31  32  33  34  35 0
 6-311+G(2d,p)
 ****
 36  37 0
 6-311+G(2d,p)
 ****
 1  2  3  4  5  17  18  19  20  21  22  23  24  25 0
 3-21G
 ****
 26  28  29  30  38  39  40  41  42  43  44  45 0
 3-21G
 ****


