%nproc=1
%NoSave
%Mem=1900MB
#P OB98/GEN NMR

erre ene a

0 1
  C     -509.664    -688.232    -216.229
  O     -510.805    -687.444    -216.519
  H     -509.636    -688.437    -215.153
  H     -508.741    -687.698    -216.492
  H     -509.709    -689.181    -216.765
  P     -510.973    -686.876    -218.010
  C     -512.949    -688.516    -218.320
  O     -511.708    -688.042    -218.825
  C     -514.098    -688.050    -219.217
  O     -513.893    -688.513    -220.565
  C     -515.453    -688.598    -218.779
  O     -515.945    -687.916    -217.644
  C     -516.253    -688.407    -220.059
  O     -516.699    -687.055    -220.200
  C     -515.202    -688.758    -221.137
  N     -515.312    -690.144    -221.618
  C     -516.144    -690.337    -222.709
  O     -516.736    -689.387    -223.233
  N     -516.305    -691.620    -223.200
  C     -515.685    -692.612    -222.631
  N     -515.880    -693.845    -223.140
  C     -514.785    -692.430    -221.465
  C     -514.643    -691.187    -221.023
  O     -509.738    -686.334    -218.670
  O     -512.118    -685.767    -217.858
  H     -516.842    -686.915    -221.148
  H     -511.725    -684.895    -217.656
  H     -514.274    -693.276    -221.027
  H     -514.005    -690.970    -220.164
  H     -515.295    -688.089    -222.004
  H     -517.132    -689.056    -220.085
  H     -515.382    -689.681    -218.587
  H     -514.106    -686.952    -219.226
  H     -516.522    -693.919    -223.920
  H     -513.071    -688.115    -217.305
  H     -515.374    -694.671    -222.843
  H     -512.956    -689.615    -218.250
  P     -516.402    -688.717    -216.343
  C     -514.434    -687.669    -215.033
  O     -515.065    -688.872    -215.446
  O     -517.138    -689.983    -216.607
  O     -517.243    -687.640    -215.515
  H     -518.140    -687.490    -215.928
  H     -513.567    -687.903    -214.451
  H     -515.116    -687.093    -214.443
  H     -514.143    -687.105    -215.894

 6  7  8  9  10  11  12  13  14  15  16  26  30  31  32  33  35 0
 6-311+G(2d,p)
 ****
 37  38 0
 6-311+G(2d,p)
 ****
 1  2  3  4  5  17  18  19  20  21  22  23  24  25 0
 3-21G
 ****
 27  28  29  34  36  39  40  41  42  43  44  45  46 0
 3-21G
 ****


