%nproc=1
%NoSave
%Mem=1900MB
#P OB98/GEN NMR

erre ene a

0 1
  C     -126.299      88.632     -86.340
  O     -124.893      88.576     -86.198
  H     -126.675      87.686     -86.738
  H     -126.744      88.803     -85.357
  H     -126.580      89.455     -87.004
  P     -124.045      88.359     -87.543
  C     -122.888      90.671     -87.754
  O     -123.910      89.806     -88.223
  C     -122.455      91.623     -88.864
  O     -121.573      92.635     -88.336
  C     -121.687      90.964     -90.005
  O     -122.556      90.314     -90.919
  C     -121.020      92.177     -90.635
  O     -121.967      92.877     -91.463
  C     -120.670      93.025     -89.403
  N     -115.740      93.493     -90.687
  C     -116.876      93.828     -91.335
  N     -118.153      93.692     -90.920
  C     -118.194      93.162     -89.687
  C     -117.124      92.790     -88.893
  C     -115.843      92.968     -89.440
  N     -114.688      92.557     -88.793
  N     -117.563      92.269     -87.691
  C     -118.876      92.308     -87.770
  N     -119.305      92.846     -88.953
  O     -125.079      87.584     -88.493
  O     -122.772      87.600     -87.376
  H     -122.717      93.119     -90.888
  H     -124.900      86.627     -88.447
  H     -116.743      94.261     -92.322
  H     -119.552      91.957     -87.003
  H     -120.825      94.096     -89.581
  H     -120.167      91.918     -91.267
  H     -120.913      90.285     -89.629
  H     -123.351      92.130     -89.241
  H     -122.027      90.077     -87.430
  H     -113.937      92.303     -89.428
  H     -114.847      91.942     -88.005
  H     -123.272      91.235     -86.899
  P     -121.891      89.517     -92.142
  C     -122.569      87.270     -91.055
  O     -121.512      88.059     -91.584
  O     -120.473      90.240     -92.310
  O     -122.664      89.542     -93.415
  H     -120.375      90.568     -93.225
  H     -122.180      86.331     -90.721
  H     -123.304      87.103     -91.815
  H     -123.019      87.783     -90.231

 6  7  8  9  10  11  12  13  14  15  25  28  32  33  34  35 0
 6-311+G(2d,p)
 ****
 36  39  40 0
 6-311+G(2d,p)
 ****
 1  2  3  4  5  16  17  18  19  20  21  22  23  24 0
 3-21G
 ****
 26  27  29  30  31  37  38  41  42  43  44  45  46  47  48 0
 3-21G
 ****


