%nproc=1
%NoSave
%Mem=1900MB
#P OB98/GEN NMR

erre ene a

0 1
  C      -39.684    -263.780     117.833
  O      -39.758    -263.218     119.134
  H      -40.383    -264.616     117.778
  H      -38.673    -264.151     117.645
  H      -39.955    -263.037     117.083
  P      -38.804    -261.958     119.413
  C      -37.202    -263.529     120.735
  O      -37.345    -262.557     119.712
  C      -35.818    -264.205     120.640
  O      -34.796    -263.216     120.999
  C      -35.639    -265.400     121.598
  O      -34.707    -266.307     120.992
  C      -35.005    -264.728     122.810
  O      -34.458    -265.693     123.687
  C      -34.048    -263.787     122.095
  N      -31.381    -262.712     126.336
  C      -31.660    -263.883     125.716
  N      -32.359    -264.093     124.578
  C      -32.788    -262.921     124.072
  C      -32.579    -261.646     124.584
  C      -31.842    -261.565     125.787
  N      -31.570    -260.374     126.415
  N      -33.184    -260.693     123.777
  C      -33.744    -261.376     122.802
  N      -33.533    -262.722     122.935
  O      -39.302    -261.429     120.843
  O      -38.848    -260.877     118.384
  H      -35.124    -266.383     123.890
  H      -39.951    -260.708     120.725
  H      -31.256    -264.782     126.200
  H      -34.300    -260.957     121.977
  H      -33.185    -264.313     121.669
  H      -35.750    -264.172     123.379
  H      -36.574    -265.927     121.810
  H      -35.634    -264.489     119.600
  H      -37.990    -264.285     120.612
  H      -37.302    -263.054     121.724
  H      -31.052    -260.404     127.279
  H      -31.924    -259.512     126.021
  P      -35.244    -267.452     120.002
  C      -34.735    -269.317     121.764
  O      -35.679    -268.727     120.874
  O      -33.895    -267.965     119.307
  O      -36.237    -267.006     118.967
  H      -34.098    -268.311     118.428
  H      -35.186    -270.149     122.262
  H      -34.426    -268.592     122.488
  H      -33.883    -269.652     121.210

 6  7  8  9  10  11  12  13  14  15  25  28  32  33  34  35 0
 6-311+G(2d,p)
 ****
 36  37  40 0
 6-311+G(2d,p)
 ****
 1  2  3  4  5  16  17  18  19  20  21  22  23  24 0
 3-21G
 ****
 26  27  29  30  31  38  39 41  42  43  44  45  46  47  48 0
 3-21G
 ****


