%nproc=1
%NoSave
%Mem=1900MB
#P OB98/GEN NMR

erre ene a

0 1
  C      553.947     495.450     487.809
  O      554.309     494.232     488.431
  H      554.461     496.286     488.297
  H      554.249     495.419     486.758
  H      552.867     495.598     487.864
  P      553.981     494.095     489.997
  C      555.474     494.209     492.124
  O      555.333     494.530     490.748
  C      556.940     494.365     492.532
  O      557.728     493.290     491.955
  C      557.581     495.655     492.051
  O      557.284     496.759     492.892
  C      559.054     495.285     492.108
  O      559.507     495.332     493.471
  C      559.033     493.836     491.590
  N      562.467     493.583     487.802
  C      562.611     493.629     489.148
  N      561.648     493.678     490.095
  C      560.426     493.663     489.518
  C      560.130     493.610     488.172
  C      561.221     493.578     487.286
  N      561.079     493.564     485.916
  N      558.758     493.635     487.971
  C      558.248     493.673     489.184
  N      559.204     493.722     490.160
  O      553.933     492.510     490.236
  O      552.755     494.791     490.472
  H      560.453     495.074     493.471
  H      553.523     492.308     491.100
  H      563.631     493.622     489.519
  H      557.180     493.681     489.416
  H      559.800     493.210     492.073
  H      559.687     495.972     491.539
  H      557.312     495.876     491.003
  H      557.011     494.271     493.627
  H      555.157     493.173     492.279
  H      561.915     493.692     485.367
  H      560.162     493.705     485.516
  H      554.853     494.874     492.724
  P      556.768     498.111     492.191
  C      558.010     500.309     491.520
  O      558.088     498.887     491.679
  O      556.277     498.995     493.428
  O      555.697     497.914     491.170
  H      555.528     499.561     493.173
  H      558.953     500.682     491.178
  H      557.768     500.760     492.460
  H      557.251     500.547     490.804

 6  7  8  9  10  11  12  13  14  15  25  28  32  33  34  35 0
 6-311+G(2d,p)
 ****
 36  39  40 0
 6-311+G(2d,p)
 ****
 1  2  3  4  5  16  17  18  19  20  21  22  23  24 0
 3-21G
 ****
 26  27  29  30  31  37  38  41  42  43  44  45  46  47 0
 3-21G
 ****
 48 0
 3-21G
 ****


