%nproc=1
%NoSave
%Mem=1900MB
#P OB98/GEN NMR

erre ene a

0 1
  C      367.453    -353.238    -896.860
  O      368.269    -353.197    -895.700
  H      366.688    -354.005    -896.750
  H      366.966    -352.267    -896.980
  H      368.065    -353.439    -897.740
  P      369.048    -354.539    -895.320
  C      371.412    -353.481    -895.190
  O      370.550    -354.386    -895.870
  C      372.867    -353.934    -895.330
  O      373.055    -355.122    -894.530
  C      373.295    -354.267    -896.780
  O      374.415    -353.463    -897.150
  C      373.754    -355.720    -896.710
  O      374.919    -355.978    -897.490
  C      374.007    -355.949    -895.220
  N      375.274    -360.712    -896.510
  C      375.872    -359.519    -896.760
  N      375.547    -358.302    -896.310
  C      374.485    -358.375    -895.470
  C      373.790    -359.511    -895.100
  C      374.222    -360.722    -895.670
  N      373.580    -361.931    -895.440
  N      372.768    -359.191    -894.220
  C      372.819    -357.882    -894.120
  N      373.827    -357.339    -894.870
  O      368.399    -355.633    -896.300
  O      368.946    -354.948    -893.890
  H      375.585    -355.317    -897.220
  H      368.165    -356.436    -895.790
  H      376.727    -359.554    -897.450
  H      372.122    -357.267    -893.550
  H      375.010    -355.632    -894.920
  H      372.940    -356.360    -897.080
  H      372.479    -354.141    -897.500
  H      373.511    -353.149    -894.920
  H      371.155    -353.455    -894.130
  H      373.878    -362.721    -895.980
  H      372.731    -361.928    -894.900
  H      371.274    -352.481    -895.610
  P      374.369    -352.810    -898.630
  C      375.863    -350.754    -898.050
  O      374.581    -351.220    -898.450
  O      372.826    -352.926    -899.030
  O      375.257    -353.490    -899.620
  H      372.728    -352.961    -900.000
  H      375.847    -349.687    -897.974
  H      376.592    -351.049    -898.775
  H      376.115    -351.175    -897.099

 6  7  8  9  10  11  12  13  14  15  25  28  32  33  34  35 0
 6-311+G(2d,p)
 ****
 36  39  40 0
 6-311+G(2d,p)
 ****
 1  2  3  4  5  16  17  18  19  20  21  22  23  24 0
 3-21G
 ****
 26  27  29  30  31  37  38  41  42  43  44  45  46  47  48 0
 3-21G
 ****


