%nproc=1
%NoSave
%Mem=1900MB
#P OB98/GEN NMR

erre ene a

0 1
  C       55.309    -311.305     -30.078
  O       54.912    -312.652     -29.833
  P       54.164    -313.165     -28.521
  C       54.855    -314.391     -26.300
  O       55.242    -313.835     -27.549
  C       56.057    -314.508     -25.350
  O       57.073    -315.344     -25.986
  C       56.708    -313.152     -25.055
  O       57.080    -312.982     -23.692
  C       57.819    -313.077     -26.091
  O       58.837    -312.144     -25.764
  C       58.255    -314.537     -26.196
  N       62.598    -315.160     -28.804
  C       62.405    -314.673     -27.529
  N       63.510    -314.278     -26.858
  N       61.234    -314.558     -26.963
  C       60.208    -314.910     -27.768
  C       60.270    -315.396     -29.055
  C       61.577    -315.565     -29.653
  O       61.803    -316.014     -30.774
  N       59.017    -315.657     -29.553
  C       58.200    -315.309     -28.577
  N       58.879    -314.858     -27.467
  O       52.899    -313.921     -28.744
  O       53.783    -311.803     -27.745
  H       59.203    -312.396     -24.895
  H       52.948    -311.984     -27.269
  H       63.525    -315.249     -29.182
  H       57.121    -315.378     -28.612
  H       58.984    -314.803     -25.427
  H       57.370    -312.742     -27.035
  H       64.426    -314.222     -27.277
  H       56.000    -312.335     -25.232
  H       63.344    -313.719     -26.021
  H       55.734    -315.007     -24.431
  H       54.459    -315.386     -26.523
  H       54.052    -313.806     -25.849
  P       56.516    -311.935     -22.625
  C       57.118    -309.550     -21.905
  O       57.118    -310.491     -22.962
  O       57.240    -312.313     -21.251
  O       55.030    -311.962     -22.453
  H       56.572    -312.575     -20.588
  H       57.295    -308.555     -22.321
  H       57.918    -309.788     -21.201
  H       56.156    -309.550     -21.384
  H       55.789    -311.243     -31.032
  H       55.990    -310.989     -29.315
  H       54.446    -310.672     -30.071

 3  4  5  6  7  8  9  10  11  12  23  26  30  31 0
 6-311+G(2d,p)
 ****
 33  35  36  37  38 0
 6-311+G(2d,p)
 ****
 1  2  13  14  15  16  17  18  19  20  21  22  24  25 0
 3-21G
 ****
 27  28  29  32  34  39  40  41  42  43  44  45  46  47  48  49 0
 3-21G
 ****


