%nproc=1
%NoSave
%Mem=1900MB
#P OB98/GEN NMR

erre ene a

0 1
  C      164.338    -234.929    -784.306
  O      163.330    -235.776    -784.858
  P      163.376    -237.338    -784.492
  C      161.136    -237.276    -783.174
  O      162.522    -237.570    -783.164
  C      160.568    -237.307    -781.747
  O      161.365    -236.513    -780.838
  C      159.154    -236.754    -781.648
  O      158.179    -237.733    -781.983
  C      159.069    -236.435    -780.153
  O      158.808    -237.645    -779.412
  C      160.485    -235.928    -779.841
  N      161.958    -231.798    -777.312
  C      162.005    -233.132    -776.944
  N      162.529    -233.405    -775.727
  N      161.582    -234.109    -777.710
  C      161.089    -233.681    -778.899
  C      160.975    -232.396    -779.368
  C      161.441    -231.324    -778.516
  O      161.418    -230.133    -778.769
  N      160.425    -232.356    -780.623
  C      160.203    -233.632    -780.931
  N      160.587    -234.474    -779.904
  O      164.885    -237.543    -783.999
  O      163.038    -238.255    -785.642
  H      159.536    -238.257    -779.637
  H      165.171    -238.459    -784.170
  H      162.288    -231.084    -776.686
  H      159.795    -233.977    -781.860
  H      160.841    -236.244    -778.851
  H      158.257    -235.739    -779.920
  H      162.915    -232.707    -775.133
  H      159.033    -235.842    -782.228
  H      162.614    -234.387    -775.458
  H      160.570    -238.354    -781.407
  H      160.607    -238.007    -783.795
  H      160.980    -236.295    -783.653
  P      157.516    -237.654    -783.451
  C      158.355    -240.047    -784.073
  O      158.362    -238.651    -784.375
  O      157.943    -236.200    -783.956
  O      156.042    -237.832    -783.484
  H      157.271    -235.820    -784.549
  H      158.839    -240.583    -784.898
  H      157.316    -240.405    -783.983
  H      158.893    -240.229    -783.147
  H      164.179    -233.924    -784.636
  H      165.301    -235.263    -784.631
  H      164.289    -234.966    -783.238

 3  4  5  6  7  8  9  10  11  12  23  26  30  31 0
 6-311+G(2d,p)
 ****
 33  35  36  37  38 0
 6-311+G(2d,p)
 ****
 1  2  13  14  15  16  17  18  19  20  21  22  24  25 0
 3-21G
 ****
 27  28  29  32  34  39  40  41  42  43  44  45  46  47  48  49 0
 3-21G
 ****


