%nproc=1
%NoSave
%Mem=1900MB
#P OB98/GEN NMR

erre ene a

0 1
  C      195.558    -741.386     258.059
  O      195.708    -740.190     258.796
  H      196.078    -741.307     257.100
  H      195.994    -742.209     258.630
  H      194.499    -741.595     257.891
  P      195.225    -738.843     258.073
  C      195.650    -737.940     260.468
  O      195.563    -737.637     259.083
  C      196.812    -737.177     261.100
  O      196.608    -735.753     260.951
  C      196.987    -737.405     262.593
  O      197.643    -738.638     262.870
  C      197.859    -736.208     262.960
  O      199.227    -736.488     262.620
  C      197.308    -735.107     262.049
  N      196.807    -731.457     265.626
  C      197.881    -732.167     265.209
  N      197.939    -733.127     264.260
  C      196.726    -733.324     263.708
  C      195.547    -732.675     264.036
  C      195.613    -731.709     265.053
  N      194.511    -730.997     265.480
  N      194.508    -733.134     263.251
  C      195.048    -734.044     262.462
  N      196.394    -734.198     262.709
  O      193.625    -738.935     258.136
  O      195.704    -738.661     256.675
  H      199.534    -737.175     263.247
  H      193.251    -738.546     257.327
  H      198.826    -731.928     265.691
  H      194.516    -734.600     261.707
  H      198.119    -734.513     261.604
  H      197.824    -735.969     264.028
  H      196.027    -737.332     263.120
  H      197.726    -737.441     260.555
  H      195.822    -739.016     260.593
  H      194.655    -730.193     266.067
  H      193.615    -731.197     265.040
  H      194.710    -737.673     260.946
  P      197.267    -739.378     264.238
  C      197.858    -741.599     263.030
  O      198.031    -740.790     264.191
  O      195.727    -739.785     264.023
  O      197.460    -738.569     265.478
  H      195.289    -739.874     264.893
  H      198.421    -742.502     263.138
  H      198.202    -741.065     262.169
  H      196.821    -741.837     262.912

 6  7  8  9  10  11  12  13  14  15  25  28  32  33  34  35 0
 6-311+G(2d,p)
 ****
 36  39  40 0
 6-311+G(2d,p)
 ****
 1  2  3  4  5  16  17  18  19  20  21  22  23  24 0
 3-21G
 ****
 26  27  29  30  31  37  38  41  42  43  44  45  46  47  48 0
 3-21G
 ****


