%nproc=1
%NoSave
%Mem=1900MB
#P OB98/GEN NMR

erre ene a

0 1
  C       36.694     834.019     174.137
  O       37.203     835.332     174.236
  H       36.240     833.752     175.096
  H       37.503     833.322     173.930
  H       35.930     833.948     173.360
  P       37.659     836.089     172.895
  C       36.211     838.031     173.772
  O       36.590     837.257     172.645
  C       35.471     839.301     173.344
  O       36.440     840.253     172.805
  C       34.413     839.068     172.260
  O       33.380     840.036     172.447
  C       35.190     839.375     170.991
  O       34.331     839.617     169.897
  C       36.032     840.568     171.458
  N       37.175     840.823     170.582
  C       36.950     841.640     169.480
  O       35.837     842.109     169.214
  N       38.019     841.860     168.664
  C       39.265     841.314     168.804
  O       40.177     841.526     168.022
  C       39.438     840.422     169.969
  C       38.399     840.223     170.787
  O       37.913     835.208     171.714
  O       38.971     836.900     173.323
  H       33.658     838.900     169.828
  H       39.572     836.995     172.563
  H       37.868     842.462     167.861
  H       40.401     839.961     170.101
  H       38.499     839.575     171.652
  H       35.429     841.481     171.496
  H       35.831     838.531     170.718
  H       34.002     838.061     172.264
  H       35.030     839.772     174.235
  H       37.123     838.299     174.321
  H       35.567     837.438     174.427
  P       31.915     839.637     172.980
  C       31.995     841.750     174.451
  O       31.652     840.369     174.378
  O       31.651     838.164     172.992
  O       30.901     840.382     171.984
  H       30.066     839.877     171.924
  H       31.773     842.121     175.430
  H       31.430     842.297     173.726
  H       33.040     841.869     174.252

 6  7  8  9  10  11  12  13  14  15  16  26  31  32  33  34  35 0
 6-311+G(2d,p)
 ****
 36  37 0
 6-311+G(2d,p)
 ****
 1  2  3  4  5  17  18  19  20  21  22  23  24  25 0
 3-21G
 ****
 27  28  29  30  38  39  40  41  42  43  44  45 0
 3-21G
 ****


