%nproc=1
%NoSave
%Mem=1900MB
#P OB98/GEN NMR

erre ene a

0 1
  C       47.683     -48.130    -138.797
  O       48.926     -48.591    -139.276
  H       47.194     -48.944    -138.256
  H       47.049     -47.837    -139.639
  H       47.805     -47.281    -138.118
  P       50.031     -47.517    -139.708
  C       49.152     -47.200    -142.114
  O       49.390     -46.589    -140.852
  C       49.272     -46.199    -143.265
  O       48.318     -45.127    -143.095
  C       50.649     -45.536    -143.316
  O       51.650     -46.272    -143.994
  C       50.338     -44.232    -144.046
  O       50.371     -44.422    -145.471
  C       48.916     -43.912    -143.579
  N       49.247     -38.947    -142.424
  C       49.431     -39.569    -143.643
  N       49.807     -38.775    -144.669
  N       49.277     -40.854    -143.826
  C       48.994     -41.535    -142.691
  C       48.803     -41.029    -141.424
  C       48.921     -39.596    -141.243
  O       48.776     -38.996    -140.182
  N       48.525     -42.027    -140.519
  C       48.624     -43.137    -141.223
  N       48.881     -42.888    -142.551
  O       51.100     -48.386    -140.529
  O       50.687     -46.782    -138.579
  H       50.227     -43.559    -145.898
  H       51.977     -47.964    -140.484
  H       49.352     -37.950    -142.347
  H       48.494     -44.138    -140.829
  H       48.292     -43.557    -144.409
  H       51.073     -43.455    -143.815
  H       50.050     -37.803    -144.551
  H       50.992     -45.291    -142.306
  H       50.205     -39.221    -145.498
  H       49.029     -46.703    -144.208
  H       48.139     -47.608    -142.079
  H       49.835     -48.039    -142.264
  P       53.096     -46.457    -143.332
  C       54.536     -45.677    -145.354
  O       54.076     -45.411    -144.047
  O       53.568     -47.876    -143.902
  O       53.113     -46.425    -141.842
  H       53.379     -48.579    -143.255
  H       55.175     -44.882    -145.676
  H       53.700     -45.753    -146.018
  H       55.081     -46.598    -145.360

 6  7  8  9  10  11  12  13  14  15  26  29  33  34 0
 6-311+G(2d,p)
 ****
 36  38  39  40  41 0
 6-311+G(2d,p)
 ****
 1  2  3  4  5  16  17  18  19  20  21  22  23  24  25 0
 3-21G
 ****
 27  28  30  31  32  35  37  42  43  44  45  46  47 0
 3-21G
 ****
 48  49 0
 3-21G
 ****


