%nproc=1
%NoSave
%Mem=1900MB
#P OB98/GEN NMR

erre ene a

0 1
  C     -657.536    1007.745     620.853
  O     -656.408    1008.539     621.171
  H     -657.384    1007.312     619.860
  H     -658.440    1008.350     620.838
  H     -657.649    1006.926     621.573
  P     -656.390    1009.286     622.592
  C     -655.520    1007.159     623.770
  O     -655.284    1008.525     623.476
  C     -654.216    1006.380     623.701
  O     -653.822    1006.153     622.330
  C     -653.030    1007.076     624.380
  O     -653.079    1006.860     625.776
  C     -651.870    1006.363     623.690
  O     -651.692    1005.058     624.268
  C     -652.368    1006.255     622.256
  N     -649.298    1007.923     618.576
  C     -649.311    1006.724     619.242
  N     -648.319    1005.839     618.924
  N     -650.183    1006.399     620.167
  C     -651.055    1007.391     620.440
  C     -651.140    1008.637     619.863
  C     -650.193    1008.965     618.805
  O     -650.164    1010.008     618.176
  N     -652.116    1009.415     620.450
  C     -652.652    1008.616     621.351
  N     -652.028    1007.384     621.395
  O     -657.710    1009.438     623.279
  O     -655.706    1010.700     622.281
  H     -650.981    1004.610     623.764
  H     -656.374    1011.376     622.076
  H     -648.589    1008.113     617.887
  H     -653.484    1008.874     621.996
  H     -652.006    1005.340     621.752
  H     -650.921    1006.891     623.815
  H     -647.489    1006.133     618.439
  H     -652.989    1008.135     624.129
  H     -648.297    1004.969     619.423
  H     -654.387    1005.378     624.141
  H     -656.238    1006.774     623.028
  H     -655.961    1007.050     624.758
  P     -652.312    1007.844     626.788
  C     -654.534    1009.008     627.436
  O     -653.400    1008.255     627.889
  O     -651.623    1009.014     626.127
  O     -651.315    1006.900     627.606
  H     -650.438    1006.774     627.176
  H     -655.178    1009.216     628.265
  H     -655.068    1008.442     626.702
  H     -654.201    1009.928     627.004

 6  7  8  9  10  11  12  13  14  15  26  29  33  34 0
 6-311+G(2d,p)
 ****
 36  38  39  40  41 0
 6-311+G(2d,p)
 ****
 1  2  3  4  5  16  17  18  19  20  21  22  23  24  25 0
 3-21G
 ****
 27  28  30  31  32  35  37  42  43  44  45  46  47 0
 3-21G
 ****
 48  49 0
 3-21G
 ****


