%nproc=1
%NoSave
%Mem=1900MB
#P OB98/GEN NMR

erre ene a

0 1
  C     -142.439      88.867    -444.617
  O     -141.398      89.680    -445.167
  P     -139.896      89.162    -444.917
  C     -139.857      90.555    -442.727
  O     -139.590      89.300    -443.341
  C     -139.229      90.625    -441.328
  O     -139.737      89.552    -440.477
  C     -137.693      90.509    -441.338
  O     -137.208      91.343    -440.279
  C     -137.492      89.033    -441.003
  O     -136.167      88.736    -440.580
  C     -138.587      88.862    -439.949
  N     -137.495      84.871    -436.951
  C     -137.003      86.130    -436.992
  N     -137.346      87.140    -437.827
  C     -138.307      86.735    -438.675
  C     -138.906      85.487    -438.753
  C     -138.464      84.525    -437.838
  N     -138.944      83.234    -437.797
  N     -139.850      85.459    -439.781
  C     -139.744      86.647    -440.357
  N     -138.895      87.477    -439.672
  O     -138.990      90.299    -445.583
  O     -139.628      87.803    -445.484
  H     -136.016      89.097    -439.682
  H     -138.697      90.021    -446.474
  H     -136.224      86.359    -436.262
  H     -140.264      86.959    -441.251
  H     -138.322      89.329    -438.994
  H     -137.695      88.424    -441.884
  H     -137.236      90.814    -442.282
  H     -139.526      91.579    -440.866
  H     -140.938      90.708    -442.637
  H     -138.561      82.608    -437.097
  H     -139.655      82.929    -438.447
  H     -139.485      91.360    -443.376
  P     -136.901      92.894    -440.602
  C     -134.410      92.858    -439.992
  O     -135.355      92.915    -441.040
  O     -136.817      93.489    -439.115
  O     -137.890      93.592    -441.485
  H     -136.224      92.953    -438.553
  H     -133.407      92.804    -440.429
  H     -134.581      91.974    -439.372
  H     -134.472      93.768    -439.371
  H     -143.389      89.304    -444.842
  H     -142.319      88.803    -443.556
  H     -142.387      87.886    -445.042

 3  4  5  6  7  8  9  10  11  12  22  25  29  30  31  32 0
 6-311+G(2d,p)
 ****
 33  36  37 0
 6-311+G(2d,p)
 ****
 1  2  13  14  15  16  17  18  19  20  21  23  24  26 0
 3-21G
 ****
 27  28  34  35  38  39  40  41  42  43  44  45  46  47  48 0
 3-21G
 ****


