%nproc=1
%NoSave
%Mem=1900MB
#P OB98/GEN NMR

erre ene a

0 1
  C        8.987     287.848    -729.956
  O        8.755     288.248    -731.314
  P        7.246     288.234    -731.859
  C        7.620     286.086    -733.285
  O        6.879     286.716    -732.261
  C        7.513     284.568    -733.171
  O        6.182     284.155    -732.776
  C        7.815     283.821    -734.466
  O        9.207     283.648    -734.672
  C        7.153     282.477    -734.203
  O        8.031     281.663    -733.375
  C        5.895     282.886    -733.410
  N        2.642     280.375    -736.358
  C        3.734     279.908    -735.657
  N        3.986     278.590    -735.730
  N        4.502     280.680    -734.925
  C        4.115     281.977    -734.928
  C        3.058     282.552    -735.590
  C        2.214     281.688    -736.403
  O        1.250     282.050    -737.078
  N        2.992     283.902    -735.363
  C        3.987     284.139    -734.531
  N        4.718     282.998    -734.256
  O        7.383     288.953    -733.284
  O        6.273     288.932    -730.970
  H        7.762     280.731    -733.517
  H        6.532     289.387    -733.506
  H        2.081     279.729    -736.915
  H        4.234     285.117    -734.115
  H        5.652     282.165    -732.619
  H        6.963     281.908    -735.114
  H        3.413     277.934    -736.232
  H        7.324     284.322    -735.329
  H        4.768     278.223    -735.174
  H        8.227     284.228    -732.395
  H        8.679     286.389    -733.232
  H        7.258     286.441    -734.262
  P        9.939     284.611    -735.734
  C        9.268     283.157    -737.769
  O        9.173     284.405    -737.130
  O       11.354     283.879    -735.951
  O       10.107     286.025    -735.269
  H       12.048     284.550    -736.144
  H        8.559     283.136    -738.617
  H        9.005     282.333    -737.096
  H       10.274     283.001    -738.162
  H       10.033     287.909    -729.740
  H        8.652     286.841    -729.819
  H        8.448     288.496    -729.296

 3  4  5  6  7  8  9  10  11  12  23  26  30  31 0
 6-311+G(2d,p)
 ****
 33  35  36  37  38 0
 6-311+G(2d,p)
 ****
 1  2  13  14  15  16  17  18  19  20  21  22  24  25 0
 3-21G
 ****
 27  28  29  32  34  39  40  41  42  43  44  45  46  47  48  49 0
 3-21G
 ****


