%nproc=1
%NoSave
%Mem=1900MB
#P OB98/GEN NMR

erre ene a

0 1
  C      -74.578     354.634    -227.841
  O      -73.660     353.559    -227.884
  H      -74.089     355.498    -227.391
  H      -75.446     354.359    -227.232
  H      -74.903     354.900    -228.853
  P      -74.125     352.243    -228.677
  C      -73.611     353.238    -231.054
  O      -74.571     352.747    -230.131
  C      -73.647     352.430    -232.355
  O      -75.007     352.431    -232.865
  C      -72.737     352.987    -233.449
  O      -72.200     351.888    -234.193
  C      -73.689     353.772    -234.332
  O      -73.188     353.934    -235.659
  C      -74.968     352.926    -234.217
  N      -76.172     353.691    -234.547
  C      -76.485     353.818    -235.902
  O      -75.755     353.319    -236.758
  N      -77.589     354.548    -236.262
  C      -78.287     355.154    -235.351
  N      -79.356     355.879    -235.773
  C      -77.970     355.080    -233.910
  C      -76.919     354.328    -233.585
  O      -75.508     351.896    -227.952
  O      -73.125     351.129    -228.669
  H      -73.909     354.293    -236.220
  H      -76.074     352.671    -227.808
  H      -78.576     355.608    -233.189
  H      -76.619     354.212    -232.549
  H      -74.920     352.058    -234.892
  H      -73.856     354.769    -233.913
  H      -71.920     353.598    -233.057
  H      -73.394     351.388    -232.123
  H      -79.523     355.921    -236.772
  H      -72.607     353.186    -230.623
  H      -79.937     356.434    -235.164
  H      -73.842     354.289    -231.255
  P      -70.670     351.934    -234.680
  C      -69.637     350.140    -233.130
  O      -69.717     351.522    -233.460
  O      -70.268     353.164    -235.426
  O      -70.572     350.650    -235.641
  H      -70.035     350.900    -236.417
  H      -68.971     350.009    -232.303
  H      -69.271     349.592    -233.973
  H      -70.609     349.780    -232.865

 6  7  8  9  10  11  12  13  14  15  16  26  30  31  32  33  35 0
 6-311+G(2d,p)
 ****
 37  38 0
 6-311+G(2d,p)
 ****
 1  2  3  4  5  17  18  19  20  21  22  23  24  25 0
 3-21G
 ****
 27  28  29  34  36  39  40  41  42  43  44  45  46 0
 3-21G
 ****


