%nproc=1
%NoSave
%Mem=1900MB
#P OB98/GEN NMR

erre ene a

0 1
  C      127.933      56.210    -191.844
  O      128.146      57.193    -190.851
  H      128.758      56.249    -192.559
  H      127.000      56.415    -192.374
  H      127.899      55.212    -191.399
  P      127.155      57.168    -189.589
  C      127.994      59.502    -188.826
  O      126.883      58.699    -189.193
  C      127.523      60.881    -188.375
  O      127.030      61.638    -189.503
  C      126.390      60.853    -187.354
  O      126.874      60.651    -186.034
  C      125.826      62.254    -187.524
  O      126.680      63.206    -186.858
  C      125.907      62.443    -189.045
  N      122.031      64.022    -191.903
  C      123.068      64.740    -191.339
  N      123.067      66.073    -191.560
  N      124.018      64.205    -190.619
  C      123.884      62.865    -190.471
  C      122.905      62.044    -190.982
  C      121.865      62.649    -191.783
  O      120.937      62.056    -192.326
  N      123.111      60.738    -190.628
  C      124.200      60.768    -189.888
  N      124.706      62.038    -189.756
  O      128.087      56.640    -188.396
  O      125.941      56.317    -189.745
  H      126.596      63.037    -185.902
  H      127.551      56.078    -187.804
  H      121.319      64.486    -192.440
  H      124.663      59.905    -189.429
  H      126.111      63.482    -189.326
  H      124.829      62.362    -187.096
  H      122.339      66.555    -192.063
  H      125.623      60.117    -187.624
  H      123.835      66.615    -191.184
  H      128.391      61.420    -187.974
  H      128.659      59.613    -189.689
  H      128.539      59.007    -188.017
  P      125.792      60.373    -184.879
  C      127.475      60.805    -182.949
  O      126.286      61.222    -183.611
  O      126.100      58.861    -184.454
  O      124.371      60.564    -185.286
  H      125.310      58.462    -184.043
  H      127.676      61.463    -182.129
  H      128.294      60.831    -183.637
  H      127.348      59.808    -182.583

 6  7  8  9  10  11  12  13  14  15  26  29  33  34 0
 6-311+G(2d,p)
 ****
 36  38  39  40  41 0
 6-311+G(2d,p)
 ****
 1  2  3  4  5  16  17  18  19  20  21  22  23  24  25 0
 3-21G
 ****
 27  28  30  31  32  35  37  42  43  44  45  46  47 0
 3-21G
 ****
 48  49 0
 3-21G
 ****


