%nproc=1
%NoSave
%Mem=1900MB
#P OB98/GEN NMR

erre ene a

0 1
  C       91.518     -76.952     -26.927
  O       91.363     -75.685     -27.536
  H       90.746     -77.068     -26.162
  H       92.499     -77.040     -26.453
  H       91.394     -77.743     -27.673
  P       92.537     -75.158     -28.497
  C       93.510     -73.850     -26.497
  O       93.765     -74.813     -27.517
  C       94.716     -73.691     -25.572
  O       95.110     -74.964     -25.019
  C       95.965     -73.165     -26.264
  O       95.869     -71.836     -26.723
  C       97.053     -73.531     -25.266
  O       97.166     -72.578     -24.208
  C       96.519     -74.876     -24.713
  N       97.257     -76.022     -25.236
  C       98.588     -76.116     -24.847
  O       99.149     -75.289     -24.127
  N       99.279     -77.188     -25.346
  C       98.791     -78.124     -26.209
  O       99.470     -79.052     -26.637
  C       97.387     -77.950     -26.616
  C       96.693     -76.923     -26.116
  O       92.164     -74.037     -29.422
  O       93.036     -76.477     -29.252
  H       97.195     -71.696     -24.624
  H       93.584     -76.251     -30.044
  H      100.243     -77.284     -25.064
  H       96.969     -78.665     -27.310
  H       95.653     -76.775     -26.399
  H       96.599     -74.894     -23.617
  H       98.034     -73.610     -25.739
  H       96.147     -73.777     -27.158
  H       94.422     -73.043     -24.739
  H       92.652     -74.202     -25.913
  H       93.256     -72.890     -26.956
  P       96.774     -71.236     -27.893
  C       98.516     -70.237     -26.216
  O       98.272     -71.069     -27.345
  O       96.185     -70.112     -28.684
  O       96.917     -72.505     -28.880
  H       96.952     -72.156     -29.795
  H       99.562     -70.241     -25.989
  H       97.967     -70.607     -25.375
  H       98.202     -69.238     -26.435

 6  7  8  9  10  11  12  13  14  15  16  26  31  32  33  34  35 0
 6-311+G(2d,p)
 ****
 36  37 0
 6-311+G(2d,p)
 ****
 1  2  3  4  5  17  18  19  20  21  22  23  24  25 0
 3-21G
 ****
 27  28  29  30  38  39  40  41  42  43  44  45 0
 3-21G
 ****


