%nproc=1
%NoSave
%Mem=1900MB
#P OB98/GEN NMR

erre ene a

0 1
  C      335.782      61.135    -385.848
  O      336.658      60.082    -385.443
  P      335.981      58.822    -384.713
  C      336.778      59.262    -382.281
  O      335.683      59.219    -383.181
  C      336.450      58.589    -380.942
  O      335.430      59.333    -380.223
  C      335.950      57.151    -381.090
  O      336.406      56.414    -379.954
  C      334.436      57.307    -380.985
  O      333.816      56.073    -380.625
  C      334.341      58.423    -379.938
  N      333.050      59.115    -379.958
  C      332.436      59.352    -378.721
  O      332.952      58.921    -377.686
  N      331.242      60.028    -378.685
  C      330.683      60.395    -379.800
  N      329.500      61.068    -379.698
  C      331.259      60.117    -381.130
  C      332.431      59.485    -381.129
  O      337.179      57.766    -384.605
  O      334.820      58.251    -385.451
  H      332.857      56.242    -380.488
  H      336.888      56.892    -384.929
  H      330.739      60.420    -382.028
  H      332.932      59.235    -382.059
  H      334.496      58.027    -378.931
  H      334.021      57.639    -381.954
  H      336.279      56.666    -382.013
  H      337.356      58.600    -380.322
  H      329.145      61.244    -378.769
  H      337.073      60.302    -382.099
  H      328.970      61.391    -380.498
  H      337.652      58.785    -382.757
  P      337.721      55.506    -380.111
  C      336.278      53.400    -379.781
  O      337.174      54.087    -380.639
  O      338.065      55.168    -378.578
  O      338.904      56.078    -380.822
  H      338.903      54.660    -378.537
  H      335.891      52.527    -380.310
  H      335.432      54.056    -379.513
  H      336.796      53.070    -378.877
  H      336.350      61.910    -386.319
  H      335.280      61.531    -384.990
  H      335.060      60.752    -386.539

 3  4  5  6  7  8  9  10  11  12  13  21  23  27  28  29  30  32 0
 6-311+G(2d,p)
 ****
 34  35 0
 6-311+G(2d,p)
 ****
 1  2  14  15  16  17  18  19  20  22  24  25  26 0
 3-21G
 ****
 31  33  36  37  38  39  40  41  42  43  44  45  46 0
 3-21G
 ****


