%nproc=1
%NoSave
%Mem=1900MB
#P OB98/GEN NMR

erre ene a

0 1
  C     -232.841    -461.349    -402.418
  O     -232.021    -460.695    -403.368
  H     -233.398    -460.593    -401.861
  H     -232.226    -461.916    -401.720
  H     -233.548    -462.016    -402.920
  P     -231.122    -461.625    -404.321
  C     -228.867    -461.652    -403.016
  O     -230.066    -462.339    -403.335
  C     -227.918    -462.553    -402.212
  O     -227.510    -463.664    -403.049
  C     -226.658    -461.841    -401.734
  O     -226.378    -462.217    -400.377
  C     -225.563    -462.329    -402.656
  O     -224.268    -462.276    -402.064
  C     -226.071    -463.741    -403.030
  N     -225.540    -464.196    -404.304
  C     -224.150    -464.356    -404.391
  O     -223.436    -464.102    -403.429
  N     -223.601    -464.750    -405.590
  C     -224.366    -464.911    -406.629
  N     -223.768    -465.273    -407.786
  C     -225.834    -464.699    -406.593
  C     -226.341    -464.359    -405.409
  O     -230.226    -460.561    -405.117
  O     -231.884    -462.558    -405.208
  H     -223.600    -462.390    -402.795
  H     -229.781    -460.970    -405.894
  H     -226.427    -464.825    -407.492
  H     -227.414    -464.189    -405.297
  H     -225.782    -464.459    -402.243
  H     -225.543    -461.705    -403.565
  H     -226.733    -460.751    -401.776
  H     -228.484    -462.985    -401.376
  H     -222.765    -465.393    -407.774
  H     -229.120    -460.762    -402.418
  H     -224.250    -465.391    -408.669
  H     -228.376    -461.330    -403.934
  P     -226.860    -461.191    -399.236
  C     -225.005    -459.499    -399.880
  O     -226.386    -459.722    -399.690
  O     -225.925    -461.536    -397.996
  O     -228.311    -461.314    -398.911
  H     -226.388    -462.098    -397.362
  H     -224.845    -458.484    -400.178
  H     -224.639    -460.156    -400.641
  H     -224.484    -459.688    -398.965

 6  7  8  9  10  11  12  13  14  15  16  26  30  31  32  33  35 0
 6-311+G(2d,p)
 ****
 37  38 0
 6-311+G(2d,p)
 ****
 1  2  3  4  5  17  18  19  20  21  22  23  24  25 0
 3-21G
 ****
 27  28  29  34  36  39  40  41  42  43  44  45  46 0
 3-21G
 ****


