%nproc=1
%NoSave
%Mem=1900MB
#P OB98/GEN NMR

erre ene a

0 1
  C     -165.364     130.928    -138.196
  O     -165.695     131.044    -136.801
  P     -164.898     130.148    -135.731
  C     -165.907     127.833    -136.414
  O     -165.762     128.833    -135.417
  C     -166.383     126.523    -135.779
  O     -165.341     125.948    -134.958
  C     -167.581     126.672    -134.852
  O     -168.793     126.824    -135.571
  C     -167.508     125.376    -134.055
  O     -168.115     124.292    -134.778
  C     -165.986     125.164    -133.932
  N     -165.476     125.498    -132.606
  C     -166.043     124.814    -131.535
  O     -166.966     124.012    -131.660
  N     -165.533     125.113    -130.300
  C     -164.582     126.057    -130.030
  O     -164.181     126.292    -128.898
  C     -164.080     126.803    -131.193
  C     -164.546     126.497    -132.404
  O     -165.086     130.996    -134.382
  O     -163.450     129.927    -136.019
  H     -167.630     124.214    -135.624
  H     -164.331     130.831    -133.786
  H     -165.910     124.608    -129.513
  H     -163.342     127.575    -131.020
  H     -164.183     127.040    -133.274
  H     -165.733     124.119    -134.149
  H     -168.024     125.447    -133.092
  H     -167.424     127.519    -134.174
  H     -166.608     125.814    -136.588
  H     -164.943     127.665    -136.900
  H     -166.623     128.179    -137.165
  P     -169.017     128.229    -136.318
  C     -171.047     128.968    -134.845
  O     -170.568     128.572    -136.113
  O     -168.888     127.782    -137.850
  O     -168.047     129.279    -135.892
  H     -169.228     126.883    -138.000
  H     -170.298     129.539    -134.292
  H     -171.325     128.079    -134.271
  H     -171.934     129.591    -134.984
  H     -165.984     131.588    -138.766
  H     -165.525     129.921    -138.518
  H     -164.337     131.189    -138.342

 3  4  5  6  7  8  9  10  11  12  13  23  28  29  30  31  32 0
 6-311+G(2d,p)
 ****
 33  34 0
 6-311+G(2d,p)
 ****
 1  2  14  15  16  17  18  19  20  21  22  24  25  26 0
 3-21G
 ****
 27  35  36  37  38  39  40  41  42  43  44  45 0
 3-21G
 ****


