%nproc=1
%NoSave
%Mem=1900MB
#P OB98/GEN NMR

erre ene a

0 1
  C      -54.782     246.686    -976.123
  O      -55.957     246.196    -976.741
  H      -54.968     246.767    -975.045
  H      -54.536     247.681    -976.508
  H      -53.943     246.005    -976.280
  P      -55.929     245.887    -978.312
  C      -56.459     243.385    -978.058
  O      -55.502     244.349    -978.477
  C      -55.908     241.968    -978.214
  O      -54.735     241.818    -977.375
  C      -56.906     240.864    -977.830
  O      -56.748     239.770    -978.726
  C      -56.450     240.463    -976.431
  O      -56.811     239.111    -976.118
  C      -54.936     240.679    -976.521
  N      -52.332     238.522    -972.768
  C      -52.683     238.027    -974.005
  N      -52.313     236.757    -974.274
  N      -53.353     238.712    -974.900
  C      -53.647     239.976    -974.493
  C      -53.349     240.586    -973.297
  C      -52.627     239.814    -972.307
  O      -52.294     240.185    -971.192
  N      -53.843     241.865    -973.247
  C      -54.439     242.027    -974.428
  N      -54.351     240.909    -975.207
  O      -55.126     246.841    -979.143
  O      -57.474     245.886    -978.739
  H      -56.286     238.841    -975.335
  H      -57.717     246.735    -979.158
  H      -51.824     237.942    -972.110
  H      -54.943     242.923    -974.744
  H      -54.411     239.817    -976.955
  H      -56.907     241.124    -975.688
  H      -51.787     236.173    -973.647
  H      -57.945     241.211    -977.834
  H      -52.541     236.374    -975.197
  H      -55.575     241.841    -979.252
  H      -57.362     243.500    -978.672
  H      -56.727     243.566    -977.002
  P      -57.508     239.808    -980.135
  C      -55.383     239.996    -981.587
  O      -56.600     240.628    -981.175
  O      -58.944     240.224    -980.088
  O      -57.359     238.293    -980.665
  H      -58.138     238.079    -981.217
  H      -54.866     240.632    -982.275
  H      -55.608     239.064    -982.063
  H      -54.765     239.820    -980.731

 6  7  8  9  10  11  12  13  14  15  26  29  33  34 0
 6-311+G(2d,p)
 ****
 36  38  39  40  41 0
 6-311+G(2d,p)
 ****
 1  2  3  4  5  16  17  18  19  20  21  22  23  24  25 0
 3-21G
 ****
 27  28  30  31  32  35  37  42  43  44  45  46  47 0
 3-21G
 ****
 48  49 0
 3-21G
 ****


