%nproc=1
%NoSave
%Mem=1900MB
#P OB98/GEN NMR

erre ene a

0 1
  C     -781.633     593.081    -340.150
  O     -780.530     593.967    -340.150
  P     -780.417     595.005    -338.929
  C     -779.717     597.216    -340.101
  O     -779.315     596.093    -339.341
  C     -778.558     598.199    -340.265
  O     -777.948     598.453    -338.985
  C     -777.429     597.693    -341.156
  O     -777.776     597.766    -342.525
  C     -776.298     598.629    -340.730
  O     -776.447     599.904    -341.371
  C     -776.548     598.763    -339.212
  N     -773.029     598.434    -335.509
  C     -773.620     599.489    -336.099
  N     -774.535     599.502    -337.092
  C     -774.826     598.252    -337.477
  C     -774.285     597.069    -336.984
  C     -773.348     597.190    -335.953
  N     -772.741     596.106    -335.357
  N     -774.823     595.980    -337.644
  C     -775.671     596.493    -338.499
  N     -775.725     597.854    -338.429
  O     -779.690     594.153    -337.789
  O     -781.727     595.569    -338.455
  H     -776.356     599.759    -342.336
  H     -780.009     594.415    -336.899
  H     -773.322     600.471    -335.715
  H     -776.277     595.917    -339.193
  H     -776.361     599.777    -338.848
  H     -775.303     598.246    -340.988
  H     -777.168     596.654    -340.893
  H     -778.951     599.137    -340.657
  H     -780.544     597.737    -339.597
  H     -771.973     596.286    -334.733
  H     -772.881     595.194    -335.778
  H     -780.083     596.880    -341.082
  P     -777.827     596.401    -343.351
  C     -775.631     597.523    -344.069
  O     -776.574     596.507    -344.357
  O     -779.077     596.646    -344.323
  O     -777.890     595.161    -342.519
  H     -779.022     597.512    -344.767
  H     -774.811     597.455    -344.790
  H     -775.229     597.395    -343.056
  H     -776.104     598.500    -344.167
  H     -781.584     592.451    -341.013
  H     -782.543     593.644    -340.171
  H     -781.606     592.478    -339.266

 3  4  5  6  7  8  9  10  11  12  22  25  29  30  31  32 0
 6-311+G(2d,p)
 ****
 33  36  37 0
 6-311+G(2d,p)
 ****
 1  2  13  14  15  16  17  18  19  20  21  23  24  26 0
 3-21G
 ****
 27  28  34  35  38  39  40  41  42  43  44  45  46  47  48 0
 3-21G
 ****


