%nproc=1
%NoSave
%Mem=1900MB
#P OB98/GEN NMR

erre ene a

0 1
  C     -660.349      10.963    -671.600
  O     -661.640      11.011    -671.028
  H     -660.229      11.813    -672.275
  H     -660.210      10.036    -672.170
  H     -659.593      11.025    -670.805
  P     -662.034       9.822    -670.027
  C     -661.994      11.487    -668.071
  O     -661.448      10.290    -668.600
  C     -661.178      12.698    -668.551
  O     -661.371      12.831    -669.995
  C     -661.598      14.025    -667.909
  O     -660.448      14.827    -667.666
  C     -662.473      14.675    -668.979
  O     -662.505      16.101    -668.843
  C     -661.818      14.167    -670.268
  N     -663.602      16.927    -674.169
  C     -662.582      17.122    -673.322
  N     -662.155      16.336    -672.308
  C     -662.897      15.193    -672.260
  C     -663.973      14.859    -673.053
  C     -664.326      15.786    -674.045
  N     -665.398      15.601    -674.906
  N     -664.483      13.633    -672.664
  C     -663.735      13.251    -671.658
  N     -662.767      14.163    -671.368
  O     -661.633       8.452    -670.465
  O     -663.605      10.052    -669.850
  H     -662.967      16.316    -668.018
  H     -663.818      10.997    -669.720
  H     -662.017      18.056    -673.456
  H     -663.863      12.315    -671.101
  H     -660.965      14.790    -670.572
  H     -663.506      14.298    -668.887
  H     -662.152      13.875    -666.970
  H     -660.107      12.500    -668.391
  H     -661.970      11.458    -666.969
  H     -665.576      16.304    -675.609
  H     -665.932      14.752    -674.845
  H     -663.028      11.571    -668.386
  P     -659.716      14.706    -666.252
  C     -657.309      14.161    -667.035
  O     -658.487      13.675    -666.386
  O     -660.607      14.510    -665.069
  O     -658.959      16.125    -666.145
  H     -658.984      16.423    -665.198
  H     -656.571      13.387    -667.061
  H     -656.926      15.002    -666.495
  H     -657.549      14.458    -668.034

 6  7  8  9  10  11  12  13  14  15  25  28  32  33  34  35 0
 6-311+G(2d,p)
 ****
 36  39  40 0
 6-311+G(2d,p)
 ****
 1  2  3  4  5  16  17  18  19  20  21  22  23  24 0
 3-21G
 ****
 26  27  29  30  31  37  38  41  42  43  44  45  46  47 0
 3-21G
 ****
 48 0
 3-21G
 ****


