%nproc=1
%NoSave
%Mem=1900MB
#P OB98/GEN NMR

erre ene a

0 1
  C      269.326    -191.442      85.902
  O      270.431    -192.163      85.396
  H      268.454    -191.653      85.276
  H      269.520    -190.367      85.879
  H      269.106    -191.759      86.924
  P      271.877    -191.909      86.036
  C      272.127    -194.445      86.409
  O      272.703    -193.272      85.849
  C      271.249    -195.161      85.381
  O      272.081    -195.552      84.255
  C      270.565    -196.418      85.928
  O      269.259    -196.506      85.355
  C      271.451    -197.531      85.406
  O      270.753    -198.759      85.330
  C      271.925    -196.970      84.063
  N      273.171    -197.605      83.634
  C      273.048    -198.794      82.908
  O      271.933    -199.249      82.646
  N      274.182    -199.475      82.552
  C      275.341    -199.041      82.936
  N      276.423    -199.786      82.583
  C      275.518    -197.806      83.727
  C      274.404    -197.144      84.037
  O      271.896    -191.352      87.420
  O      272.580    -190.915      84.995
  H      270.036    -198.685      84.663
  H      272.408    -189.989      85.250
  H      276.505    -197.490      84.028
  H      274.436    -196.233      84.624
  H      271.166    -197.124      83.286
  H      272.305    -197.671      86.082
  H      270.496    -196.428      87.021
  H      270.511    -194.448      84.996
  H      276.250    -200.637      82.062
  H      271.516    -194.143      87.265
  H      277.368    -199.572      82.859
  H      272.918    -195.115      86.759
  P      267.953    -196.293      86.262
  C      266.158    -196.205      84.440
  O      266.688    -196.959      85.526
  O      267.733    -194.888      86.723
  O      268.197    -197.262      87.517
  H      267.759    -196.886      88.304
  H      265.325    -196.726      84.017
  H      266.914    -196.075      83.694
  H      265.838    -195.247      84.794

 6  7  8  9  10  11  12  13  14  15  16  26  30  31  32  33  35 0
 6-311+G(2d,p)
 ****
 37  38 0
 6-311+G(2d,p)
 ****
 1  2  3  4  5  17  18  19  20  21  22  23  24  25 0
 3-21G
 ****
 27  28  29  34  36  39  40  41  42  43  44  45  46 0
 3-21G
 ****


