%nproc=1
%NoSave
%Mem=1900MB
#P OB98/GEN NMR

erre ene a

0 1
  C      -37.322      94.486    -456.970
  O      -38.519      94.349    -456.221
  P      -38.961      95.480    -455.175
  C      -41.259      95.702    -456.312
  O      -40.070      96.380    -455.913
  C      -42.493      96.461    -455.837
  O      -42.406      96.655    -454.407
  C      -42.645      97.837    -456.479
  O      -44.036      98.111    -456.689
  C      -42.124      98.803    -455.421
  O      -42.706     100.107    -455.572
  C      -42.503      98.069    -454.133
  N      -40.332     101.824    -451.389
  C      -41.202     101.859    -452.419
  N      -41.719     100.820    -453.117
  C      -41.293      99.651    -452.612
  C      -40.407      99.465    -451.560
  C      -39.916     100.619    -450.934
  N      -39.042     100.586    -449.867
  N      -40.184      98.116    -451.347
  C      -40.930      97.505    -452.241
  N      -41.628      98.390    -453.024
  O      -37.843      96.256    -454.571
  O      -39.810      94.698    -454.068
  H      -42.318     100.677    -454.877
  H      -39.626      95.060    -453.181
  H      -41.524     102.848    -452.729
  H      -40.995      96.433    -452.371
  H      -43.540      98.282    -453.834
  H      -41.040      98.907    -455.523
  H      -42.097      97.934    -457.425
  H      -43.382      95.849    -456.036
  H      -41.257      94.703    -455.862
  H      -38.837     101.454    -449.409
  H      -38.870      99.695    -449.418
  H      -41.265      95.589    -457.404
  P      -44.401      98.887    -458.048
  C      -44.312      96.650    -459.376
  O      -43.819      97.958    -459.217
  O      -43.960     100.310    -458.018
  O      -45.991      98.682    -458.097
  H      -46.269      97.884    -457.602
  H      -43.772      96.166    -460.195
  H      -45.379      96.676    -459.627
  H      -44.164      96.066    -458.459
  H      -37.201      93.636    -457.608
  H      -36.489      94.552    -456.302
  H      -37.373      95.374    -457.565

 3  4  5  6  7  8  9  10  11  12  22  25  29  30  31  32 0
 6-311+G(2d,p)
 ****
 33  36  37 0
 6-311+G(2d,p)
 ****
 1  2  13  14  15  16  17  18  19  20  21  23  24  26 0
 3-21G
 ****
 27  28  34  35  38  39  40  41  42  43  44  45  46  47  48 0
 3-21G
 ****


