%nproc=1
%NoSave
%Mem=1900MB
#P OB98/GEN NMR

erre ene a

0 1
  C     -793.056    1117.266    -348.787
  O     -792.644    1117.613    -347.477
  P     -791.547    1116.719    -346.712
  C     -789.518    1117.739    -347.986
  O     -790.283    1116.588    -347.696
  C     -788.078    1117.363    -348.332
  O     -787.433    1116.864    -347.123
  C     -787.930    1116.241    -349.360
  O     -786.606    1116.292    -349.904
  C     -788.100    1115.002    -348.502
  O     -787.565    1113.841    -349.130
  C     -787.398    1115.425    -347.176
  N     -788.097    1114.856    -346.020
  C     -787.978    1113.486    -345.820
  O     -787.267    1112.765    -346.533
  N     -788.764    1112.941    -344.837
  C     -789.674    1113.628    -344.088
  O     -790.574    1113.111    -343.446
  C     -789.579    1115.093    -344.175
  C     -788.826    1115.635    -345.132
  O     -792.209    1115.259    -346.750
  O     -791.240    1117.157    -345.327
  H     -786.587    1113.980    -349.185
  H     -792.676    1115.083    -345.914
  H     -788.789    1111.931    -344.797
  H     -790.178    1115.681    -343.486
  H     -788.784    1116.708    -345.258
  H     -786.357    1115.089    -347.153
  H     -789.166    1114.835    -348.337
  H     -788.664    1116.289    -350.176
  H     -787.537    1118.260    -348.663
  H     -789.546    1118.417    -347.124
  H     -789.957    1118.282    -348.830
  P     -786.356    1115.655    -351.353
  C     -786.350    1117.744    -352.843
  O     -787.090    1116.619    -352.399
  O     -786.664    1114.191    -351.494
  O     -784.805    1115.962    -351.619
  H     -784.463    1115.375    -352.320
  H     -786.685    1117.997    -353.864
  H     -785.278    1117.536    -352.865
  H     -786.543    1118.593    -352.178
  H     -793.785    1117.970    -349.130
  H     -793.484    1116.285    -348.778
  H     -792.210    1117.280    -349.442

 3  4  5  6  7  8  9  10  11  12  13  23  28  29  30  31  32 0
 6-311+G(2d,p)
 ****
 33  34 0
 6-311+G(2d,p)
 ****
 1  2  14  15  16  17  18  19  20  21  22  24  25  26  27 0
 3-21G
 ****
 35  36  37  38  39  40  41  42  43  44  45 0
 3-21G
 ****


