%nproc=1
%NoSave
%Mem=1900MB
#P OB98/GEN NMR

erre ene a

0 1
  C      340.013    -454.128    -108.632
  O      340.554    -454.269    -107.327
  P      341.634    -453.226    -106.751
  C      339.975    -451.439    -105.883
  O      340.935    -451.788    -106.865
  C      339.954    -449.928    -105.669
  O      341.294    -449.488    -105.310
  C      339.515    -449.118    -106.899
  O      338.788    -447.980    -106.418
  C      340.836    -448.687    -107.508
  O      340.710    -447.550    -108.348
  C      341.674    -448.463    -106.245
  N      343.112    -448.511    -106.515
  C      343.632    -447.576    -107.418
  O      342.900    -446.767    -107.984
  N      344.980    -447.587    -107.663
  C      345.735    -448.496    -107.125
  N      347.075    -448.426    -107.355
  C      345.207    -449.567    -106.253
  C      343.907    -449.496    -105.981
  O      342.983    -453.315    -107.371
  O      341.621    -453.478    -105.172
  H      340.064    -447.759    -109.048
  H      342.217    -454.219    -104.898
  H      345.868    -450.323    -105.853
  H      343.436    -450.221    -105.328
  H      341.422    -447.504    -105.785
  H      341.245    -449.508    -108.111
  H      338.882    -449.694    -107.579
  H      339.301    -449.710    -104.813
  H      347.413    -447.590    -107.807
  H      340.252    -451.928    -104.942
  H      347.735    -448.878    -106.728
  H      338.985    -451.808    -106.182
  P      337.581    -447.419    -107.314
  C      335.569    -448.091    -105.819
  O      336.283    -448.315    -107.019
  O      338.002    -447.927    -108.784
  O      337.393    -445.935    -107.324
  H      337.602    -447.339    -109.448
  H      334.719    -448.782    -105.785
  H      335.184    -447.070    -105.787
  H      336.208    -448.285    -104.953
  H      339.318    -454.920    -108.817
  H      340.803    -454.171    -109.352
  H      339.510    -453.187    -108.710

 3  4  5  6  7  8  9  10  11  12  13  23  27  28  29  30  32 0
 6-311+G(2d,p)
 ****
 34  35 0
 6-311+G(2d,p)
 ****
 1  2  14  15  16  17  18  19  20  21  22  24  25  26 0
 3-21G
 ****
 31  33  36  37  38  39  40  41  42  43  44  45  46 0
 3-21G
 ****


