%nproc=1
%NoSave
%Mem=1900MB
#P OB98/GEN NMR

erre ene a

0 1
  C     1013.995    -534.915     -83.343
  O     1012.700    -534.361     -83.435
  H     1014.413    -535.001     -84.348
  H     1013.938    -535.914     -82.898
  H     1014.657    -534.283     -82.738
  P     1012.046    -533.707     -82.130
  C     1010.347    -532.484     -83.644
  O     1010.536    -533.290     -82.484
  C     1008.865    -532.182     -83.885
  O     1008.220    -531.878     -82.633
  C     1008.655    -530.963     -84.792
  O     1008.667    -531.254     -86.180
  C     1007.287    -530.468     -84.335
  O     1006.233    -531.109     -85.069
  C     1007.240    -530.862     -82.861
  N     1005.376    -527.798     -79.218
  C     1004.700    -528.734     -79.986
  N     1003.375    -528.833     -79.777
  N     1005.297    -529.478     -80.878
  C     1006.614    -529.205     -81.041
  C     1007.374    -528.277     -80.349
  C     1006.727    -527.511     -79.311
  O     1007.274    -526.679     -78.590
  N     1008.667    -528.243     -80.818
  C     1008.656    -529.075     -81.842
  N     1007.460    -529.735     -81.965
  O     1012.775    -532.287     -82.023
  O     1012.213    -534.493     -80.864
  H     1006.334    -532.079     -84.962
  H     1012.845    -532.029     -81.080
  H     1004.873    -527.275     -78.519
  H     1009.496    -529.262     -82.494
  H     1006.263    -531.291     -82.591
  H     1007.180    -529.393     -84.516
  H     1002.855    -528.221     -79.167
  H     1009.397    -530.182     -84.567
  H     1002.828    -529.367     -80.452
  H     1008.373    -533.073     -84.299
  H     1010.754    -533.054     -84.484
  H     1010.917    -531.559     -83.557
  P     1009.676    -530.523     -87.165
  C     1009.836    -532.455     -88.946
  O     1009.482    -531.123     -88.634
  O     1011.105    -531.100     -86.719
  O     1009.638    -529.026     -87.131
  H     1011.563    -530.468     -86.136
  H     1009.625    -532.648     -89.977
  H     1009.271    -533.127     -88.334
  H     1010.880    -532.599     -88.763

 6  7  8  9  10  11  12  13  14  15  26  29  33  34 0
 6-311+G(2d,p)
 ****
 36  38  39  40  41 0
 6-311+G(2d,p)
 ****
 1  2  3  4  5  16  17  18  19  20  21  22  23  24  25 0
 3-21G
 ****
 27  28  30  31  32  35  37  42  43  44  45  46  47 0
 3-21G
 ****
 48  49 0
 3-21G
 ****


