%nproc=1
%NoSave
%Mem=1900MB
#P OB98/GEN NMR

erre ene a

0 1
  C       45.592    -355.099     339.472
  O       45.289    -355.964     338.368
  P       43.777    -356.485     338.175
  C       44.388    -358.841     339.147
  O       43.801    -358.092     338.094
  C       43.816    -360.265     339.168
  O       42.418    -360.244     339.547
  C       43.845    -360.973     337.820
  O       45.145    -361.450     337.497
  C       42.835    -362.090     338.041
  O       43.439    -363.204     338.722
  C       41.796    -361.400     338.950
  N       40.580    -361.032     338.229
  C       39.739    -362.084     337.861
  O       40.010    -363.265     338.057
  N       38.579    -361.718     337.218
  C       38.225    -360.454     336.856
  O       37.185    -360.196     336.263
  C       39.195    -359.391     337.203
  C       40.301    -359.733     337.859
  O       43.484    -356.085     336.646
  O       42.764    -355.889     339.087
  H       44.213    -363.472     338.195
  H       42.523    -355.937     336.534
  H       37.949    -362.464     336.966
  H       38.954    -358.381     336.914
  H       41.026    -358.962     338.122
  H       41.521    -362.063     339.782
  H       42.419    -362.474     337.104
  H       43.473    -360.299     337.034
  H       44.370    -360.846     339.921
  H       44.168    -358.356     340.104
  H       45.474    -358.867     339.002
  P       46.165    -360.376     336.866
  C       45.894    -361.236     334.411
  O       46.731    -361.066     335.540
  O       47.372    -360.448     337.919
  O       45.567    -359.020     336.704
  H       47.482    -361.342     338.294
  H       45.177    -360.423     334.319
  H       45.367    -362.188     334.496
  H       46.521    -361.258     333.512
  H       46.632    -354.848     339.454
  H       45.361    -355.598     340.390
  H       45.008    -354.205     339.396

 3  4  5  6  7  8  9  10  11  12  13  23  28  29  30  31  32 0
 6-311+G(2d,p)
 ****
 33  34 0
 6-311+G(2d,p)
 ****
 1  2  14  15  16  17  18  19  20  21  22  24  25  26 0
 3-21G
 ****
 27  35  36  37  38  39  40  41  42  43  44  45 0
 3-21G
 ****


