%nproc=1
%NoSave
%Mem=1900MB
#P OB98/GEN NMR

erre ene a

0 1
  C     -338.691     134.750     404.391
  O     -339.880     135.031     403.682
  H     -337.894     135.400     404.013
  H     -338.394     133.709     404.232
  H     -338.822     134.942     405.460
  P     -341.223     134.303     404.182
  C     -342.006     133.931     401.728
  O     -342.300     134.485     403.006
  C     -342.651     134.760     400.615
  O     -342.001     136.058     400.566
  C     -342.540     134.120     399.231
  O     -343.759     134.367     398.519
  C     -341.406     134.886     398.576
  O     -341.485     134.870     397.146
  C     -341.548     136.271     399.213
  N     -340.295     137.012     399.173
  C     -340.008     137.690     397.985
  O     -340.781     137.632     397.030
  N     -338.807     138.362     397.876
  C     -337.945     138.292     398.843
  N     -336.766     138.955     398.662
  C     -338.177     137.535     400.091
  C     -339.361     136.933     400.182
  O     -341.766     135.278     405.328
  O     -341.050     132.903     404.655
  H     -340.718     135.372     396.793
  H     -342.238     134.773     406.022
  H     -337.418     137.482     400.851
  H     -339.624     136.347     401.064
  H     -342.325     136.854     398.695
  H     -340.443     134.435     398.857
  H     -342.353     133.044     399.266
  H     -343.705     134.935     400.886
  H     -336.640     139.449     397.790
  H     -342.396     132.910     401.687
  H     -336.007     138.931     399.327
  H     -340.918     133.892     401.593
  P     -344.661     133.083     398.182
  C     -344.930     133.058     395.588
  O     -345.504     133.410     396.843
  O     -345.770     133.095     399.335
  O     -343.897     131.801     398.148
  H     -345.601     132.369     399.958
  H     -345.599     133.334     394.800
  H     -344.759     132.002     395.558
  H     -344.001     133.573     395.464

 6  7  8  9  10  11  12  13  14  15  16  26  30  31  32  33  35 0
 6-311+G(2d,p)
 ****
 37  38 0
 6-311+G(2d,p)
 ****
 1  2  3  4  5  17  18  19  20  21  22  23  24  25 0
 3-21G
 ****
 27  28  29  34  36  39  40  41  42  43  44  45  46 0
 3-21G
 ****


