%nproc=1
%NoSave
%Mem=1900MB
#P OB98/GEN NMR

erre ene a

0 1
  C      208.585      85.141     147.285
  O      208.351      86.085     146.234
  P      208.279      87.634     146.661
  C      206.551      88.300     144.831
  O      207.860      88.475     145.360
  C      206.255      89.350     143.763
  O      206.304      90.680     144.317
  C      207.248      89.367     142.608
  O      206.977      88.339     141.669
  C      206.976      90.738     142.006
  O      205.837      90.670     141.128
  C      206.652      91.589     143.245
  N      209.349      95.787     142.342
  C      208.263      95.266     141.663
  N      207.813      95.986     140.608
  N      207.670      94.146     141.987
  C      208.206      93.555     143.081
  C      209.277      93.967     143.836
  C      209.946      95.192     143.447
  O      210.929      95.679     143.996
  N      209.524      93.103     144.878
  C      208.581      92.190     144.765
  N      207.767      92.406     143.683
  O      209.822      88.020     146.868
  O      207.470      87.889     147.891
  H      205.043      90.606     141.693
  H      209.899      88.755     147.508
  H      209.770      96.648     142.044
  H      208.448      91.353     145.442
  H      205.789      92.241     143.078
  H      207.815      91.107     141.407
  H      208.177      96.889     140.349
  H      208.281      89.324     142.979
  H      206.998      95.635     140.121
  H      205.240      89.171     143.381
  H      205.816      88.381     145.634
  H      206.466      87.287     144.422
  P      208.163      87.304     141.353
  C      207.927      87.125     138.773
  O      207.702      86.521     140.034
  O      208.017      86.218     142.518
  O      209.526      87.913     141.317
  H      208.884      85.814     142.716
  H      208.916      87.583     138.719
  H      207.159      87.885     138.597
  H      207.852      86.358     137.995
  H      208.611      84.152     146.877
  H      207.798      85.208     148.007
  H      209.521      85.357     147.757

 3  4  5  6  7  8  9  10  11  12  23  26  30  31  33  0
 6-311+G(2d,p)
 ****
 35  36  37  38 0
 6-311+G(2d,p)
 ****
 1  2  13  14  15  16  17  18  19  20  21  22  24  25  27  28  29 0
 3-21G
 ****
 32  34  39  40  41  42  43  44  45  46  47  48  49 0
 3-21G
 ****


