%nproc=1
%NoSave
%Mem=1900MB
#P OB98/GEN NMR

erre ene a

0 1
  C      240.712     196.310     -50.641
  O      241.332     196.589     -49.401
  H      241.395     196.594     -51.446
  H      239.794     196.895     -50.736
  H      240.485     195.244     -50.728
  P      240.582     196.058     -48.086
  C      241.451     195.335     -45.750
  O      241.713     195.420     -47.142
  C      242.633     194.694     -45.028
  O      242.827     193.337     -45.489
  C      243.964     195.410     -45.245
  O      244.110     196.523     -44.373
  C      244.939     194.301     -44.890
  O      245.013     194.159     -43.457
  C      244.259     193.073     -45.508
  N      246.688     189.812     -48.537
  C      246.478     189.768     -47.172
  N      246.998     188.708     -46.517
  N      245.824     190.683     -46.505
  C      245.369     191.691     -47.289
  C      245.512     191.843     -48.650
  C      246.229     190.821     -49.374
  O      246.425     190.799     -50.588
  N      244.903     192.990     -49.091
  C      244.416     193.542     -47.998
  N      244.675     192.795     -46.875
  O      239.775     194.775     -48.611
  O      239.672     197.039     -47.427
  H      245.450     193.305     -43.281
  H      238.923     194.723     -48.134
  H      247.209     189.087     -48.998
  H      243.865     194.470     -47.966
  H      244.434     192.161     -44.929
  H      245.951     194.501     -45.243
  H      247.556     187.996     -46.961
  H      244.102     195.694     -46.294
  H      246.830     188.637     -45.521
  H      242.392     194.645     -43.959
  H      240.557     194.725     -45.587
  H      241.274     196.342     -45.359
  P      244.873     197.819     -44.944
  C      244.768     200.361     -44.420
  O      244.365     199.047     -44.046
  O      244.153     198.069     -46.353
  O      246.349     197.672     -45.083
  H      244.744     198.574     -46.944
  H      244.355     201.070     -43.733
  H      244.416     200.575     -45.408
  H      245.836     200.426     -44.400

 6  7  8  9  10  11  12  13  14  15  26  29  33  34 0
 6-311+G(2d,p)
 ****
 36  38  39  40  41 0
 6-311+G(2d,p)
 ****
 1  2  3  4  5  16  17  18  19  20  21  22  23  24  25 0
 3-21G
 ****
 27  28  30  31  32  35  37  42  43  44  45  46  47 0
 3-21G
 ****
 48  49 0
 3-21G
 ****


