%nproc=1
%NoSave
%Mem=1900MB
#P OB98/GEN NMR

erre ene a

0 1
  C       67.619      71.731    -115.874
  O       68.782      70.941    -115.981
  H       66.748      71.092    -116.042
  H       67.634      72.512    -116.638
  H       67.535      72.187    -114.885
  P       70.148      71.495    -115.360
  C       70.714      72.050    -117.815
  O       71.214      71.621    -116.555
  C       71.292      71.227    -118.967
  O       70.627      71.566    -120.204
  C       72.777      71.510    -119.195
  O       73.666      70.779    -118.370
  C       72.947      71.122    -120.661
  O       73.190      69.712    -120.793
  C       71.593      71.493    -121.268
  N       70.352      74.042    -125.517
  C       70.173      72.705    -125.223
  N       69.651      71.941    -126.208
  N       70.496      72.171    -124.075
  C       71.095      73.035    -123.222
  C       71.338      74.378    -123.408
  C       70.926      74.972    -124.664
  O       71.068      76.150    -124.977
  N       71.963      74.932    -122.317
  C       72.163      73.912    -121.507
  N       71.631      72.745    -122.001
  O       70.715      70.248    -114.524
  O       70.012      72.708    -114.491
  H       72.473      69.233    -120.340
  H       71.282      70.565    -113.799
  H       70.059      74.405    -126.407
  H       72.662      73.969    -120.546
  H       71.241      70.722    -121.966
  H       73.799      71.633    -121.118
  H       69.497      72.283    -127.143
  H       72.981      72.581    -119.097
  H       69.752      70.927    -126.129
  H       71.106      70.163    -118.780
  H       70.999      73.098    -117.925
  H       69.622      72.007    -117.824
  P       74.815      71.541    -117.557
  C       76.101      72.181    -119.727
  O       76.127      71.527    -118.477
  O       75.161      70.511    -116.383
  O       74.428      72.878    -117.027
  H       74.677      70.751    -115.571
  H       77.052      72.074    -120.205
  H       75.890      73.220    -119.582
  H       75.341      71.745    -120.342

 6  7  8  9  10  11  12  13  14  15  26  29  33  34 0
 6-311+G(2d,p)
 ****
 36  38  39  40  41 0
 6-311+G(2d,p)
 ****
 1  2  3  4  5  16  17  18  19  20  21  22  23  24  25 0
 3-21G
 ****
 27  28  30  31  32  35  37  42  43  44  45  46  47 0
 3-21G
 ****
 48  49 0
 3-21G
 ****


