%nproc=1
%NoSave
%Mem=1900MB
#P OB98/GEN NMR

erre ene a

0 1
  C     -668.552     -28.584    -635.888
  O     -667.607     -27.981    -635.023
  H     -669.501     -28.036    -635.854
  H     -668.163     -28.549    -636.910
  H     -668.712     -29.628    -635.600
  P     -668.037     -27.841    -633.489
  C     -665.574     -27.738    -632.674
  O     -666.820     -28.426    -632.616
  C     -664.441     -28.659    -632.224
  O     -664.461     -29.882    -633.001
  C     -663.050     -28.080    -632.398
  O     -662.712     -27.168    -631.365
  C     -662.202     -29.360    -632.309
  O     -662.025     -29.721    -630.929
  C     -663.102     -30.391    -633.020
  N     -660.040     -33.116    -636.130
  C     -660.167     -33.093    -634.777
  N     -660.990     -32.332    -634.026
  C     -661.760     -31.546    -634.799
  C     -661.734     -31.446    -636.181
  C     -660.826     -32.269    -636.851
  N     -660.689     -32.276    -638.230
  N     -662.663     -30.539    -636.625
  C     -663.244     -30.078    -635.527
  N     -662.721     -30.649    -634.390
  O     -669.177     -28.951    -633.315
  O     -668.525     -26.488    -633.086
  H     -661.628     -28.945    -630.493
  H     -669.859     -28.613    -632.693
  H     -659.537     -33.783    -634.229
  H     -664.040     -29.346    -635.512
  H     -663.113     -31.349    -632.479
  H     -661.217     -29.247    -632.756
  H     -662.920     -27.633    -633.385
  H     -664.631     -28.935    -631.171
  H     -665.610     -26.868    -632.011
  H     -660.165     -33.035    -638.657
  H     -661.287     -31.662    -638.766
  H     -665.412     -27.399    -633.700
  P     -662.386     -25.655    -631.791
  C     -663.874     -24.008    -630.429
  O     -663.762     -24.841    -631.583
  O     -662.258     -25.740    -633.391
  O     -661.173     -25.068    -631.171
  H     -661.705     -25.027    -633.729
  H     -664.833     -23.534    -630.423
  H     -663.108     -23.262    -630.452
  H     -663.765     -24.604    -629.547

 6  7  8  9  10  11  12  13  14  15  25  28  32  33  34  35 0
 6-311+G(2d,p)
 ****
 36  39  40 0
 6-311+G(2d,p)
 ****
 1  2  3  4  5  16  17  18  19  20  21  22  23  24 0
 3-21G
 ****
 26  27  29  30  31  37  38  41  42  43  44  45  46  47  48 0
 3-21G
 ****


