%nproc=1
%NoSave
%Mem=1900MB
#P OB98/GEN NMR

erre ene a

0 1
  C     -563.142     325.424    -945.024
  O     -564.035     326.209    -945.793
  H     -563.696     324.962    -944.202
  H     -562.353     326.046    -944.590
  H     -562.699     324.637    -945.641
  P     -563.430     327.123    -946.967
  C     -565.539     326.980    -948.467
  O     -564.694     327.807    -947.670
  C     -566.959     326.996    -947.919
  O     -567.021     326.280    -946.667
  C     -567.480     328.399    -947.618
  O     -567.838     329.064    -948.820
  C     -568.627     328.088    -946.675
  O     -569.794     327.665    -947.387
  C     -568.028     326.925    -945.841
  N     -567.475     327.370    -944.567
  C     -568.327     327.306    -943.465
  O     -569.489     326.879    -943.604
  N     -567.862     327.730    -942.252
  C     -566.648     328.164    -942.130
  N     -566.252     328.573    -940.900
  C     -565.700     328.245    -943.264
  C     -566.178     327.828    -944.444
  O     -562.477     326.455    -947.914
  O     -562.745     328.337    -946.176
  H     -570.384     327.268    -946.724
  H     -561.811     328.131    -945.967
  H     -564.701     328.605    -943.130
  H     -565.545     327.847    -945.339
  H     -568.801     326.162    -945.642
  H     -568.893     328.955    -946.078
  H     -566.728     328.969    -947.072
  H     -567.617     326.476    -948.637
  H     -566.930     328.519    -940.151
  H     -565.121     325.973    -948.435
  H     -565.300     328.848    -940.668
  H     -565.534     327.320    -949.515
  P     -567.010     330.352    -949.307
  C     -567.342     329.982    -951.847
  O     -567.690     330.778    -950.708
  O     -565.532     330.196    -949.333
  O     -567.519     331.513    -948.312
  H     -567.110     331.395    -947.416
  H     -567.849     330.356    -952.712
  H     -567.632     328.967    -951.675
  H     -566.285     330.029    -952.005

 6  7  8  9  10  11  12  13  14  15  16  26  30  31  32  33  35 0
 6-311+G(2d,p)
 ****
 37  38 0
 6-311+G(2d,p)
 ****
 1  2  3  4  5  17  18  19  20  21  22  23  24  25 0
 3-21G
 ****
 27  28  29  34  36  39  40  41  42  43  44  45  46 0
 3-21G
 ****


