%nproc=1
%NoSave
%Mem=1900MB
#P OB98/GEN NMR

erre ene a

0 1
  C     -747.811     367.983      85.840
  O     -749.064     367.832      85.193
  P     -749.226     368.251      83.660
  C     -749.477     370.817      83.760
  O     -748.604     369.721      83.496
  C     -749.306     371.911      82.699
  O     -747.916     372.311      82.614
  C     -749.695     371.477      81.295
  O     -751.112     371.447      81.147
  C     -748.981     372.534      80.461
  O     -749.754     373.743      80.396
  C     -747.685     372.757      81.268
  N     -744.094     372.861      77.634
  C     -745.193     373.623      77.844
  N     -746.125     373.513      78.820
  C     -745.852     372.457      79.605
  C     -744.801     371.560      79.492
  C     -743.878     371.808      78.466
  N     -742.715     371.072      78.280
  N     -744.882     370.593      80.479
  C     -745.958     370.884      81.148
  N     -746.554     372.038      80.705
  O     -750.599     368.086      83.082
  O     -748.170     367.327      82.888
  H     -749.206     374.409      79.928
  H     -748.646     366.768      82.247
  H     -745.336     374.446      77.152
  H     -746.358     370.315      81.983
  H     -747.411     373.815      81.319
  H     -748.817     372.205      79.425
  H     -749.273     370.490      81.078
  H     -749.903     372.785      83.022
  H     -749.244     371.227      84.749
  H     -742.063     371.434      77.592
  H     -742.383     370.495      79.049
  H     -750.512     370.458      83.769
  P     -751.798     370.302      80.274
  C     -751.828     371.456      77.979
  O     -751.232     370.453      78.774
  O     -753.284     370.213      80.391
  O     -751.081     368.957      80.782
  H     -751.714     368.224      80.733
  H     -752.795     371.109      77.607
  H     -751.180     371.655      77.125
  H     -751.970     372.385      78.549
  H     -747.892     367.654      86.855
  H     -747.522     369.013      85.821
  H     -747.074     367.396      85.332

 3  4  5  6  7  8  9  10  11  12  22  25  29  30  31  32 0
 6-311+G(2d,p)
 ****
 33  36  37 0
 6-311+G(2d,p)
 ****
 1  2  13  14  15  16  17  18  19  20  21  23  24  26 0
 3-21G
 ****
 27  28  34  35  38  39  40  41  42  43  44  45  46  47  48 0
 3-21G
 ****


