%nproc=1
%NoSave
%Mem=1900MB
#P OB98/GEN NMR

erre ene a

0 1
  C     -390.528     -18.550     -17.689
  O     -391.391     -17.928     -18.625
  H     -389.650     -17.916     -17.549
  H     -390.206     -19.524     -18.065
  H     -391.037     -18.667     -16.730
  P     -392.761     -18.696     -18.952
  C     -394.064     -17.085     -17.400
  O     -393.680     -18.428     -17.666
  C     -395.340     -17.050     -16.563
  O     -395.558     -15.734     -16.027
  C     -396.607     -17.399     -17.334
  O     -396.750     -18.804     -17.464
  C     -397.668     -16.807     -16.419
  O     -397.915     -17.703     -15.316
  C     -396.991     -15.523     -15.908
  N     -400.800     -12.344     -17.222
  C     -400.809     -13.560     -16.639
  N     -399.762     -14.367     -16.360
  C     -398.608     -13.800     -16.745
  C     -398.444     -12.565     -17.353
  C     -399.609     -11.815     -17.584
  N     -399.594     -10.567     -18.170
  N     -397.109     -12.317     -17.606
  C     -396.478     -13.362     -17.112
  N     -397.341     -14.304     -16.613
  O     -392.620     -20.114     -19.382
  O     -393.405     -17.715     -20.042
  H     -398.170     -18.565     -15.691
  H     -393.237     -16.786     -19.807
  H     -401.786     -13.940     -16.357
  H     -395.401     -13.477     -17.076
  H     -397.209     -15.343     -14.848
  H     -398.623     -16.660     -16.930
  H     -396.642     -16.887     -18.301
  H     -395.201     -17.730     -15.712
  H     -394.219     -16.540     -18.338
  H     -400.480     -10.176     -18.452
  H     -398.721     -10.231     -18.549
  H     -393.242     -16.610     -16.856
  P     -398.009     -19.430     -18.234
  C     -396.916     -19.951     -20.502
  O     -397.805     -19.097     -19.791
  O     -399.338     -19.041     -17.688
  O     -397.778     -21.009     -18.168
  H     -398.627     -21.472     -18.036
  H     -396.859     -19.636     -21.523
  H     -397.277     -20.957     -20.459
  H     -395.943     -19.902     -20.059

 6  7  8  9  10  11  12  13  14  15  25  28  32  33  34  35 0
 6-311+G(2d,p)
 ****
 36  39  40 0
 6-311+G(2d,p)
 ****
 1  2  3  4  5  16  17  18  19  20  21  22  23  24 0
 3-21G
 ****
 26  27  29  30  31  37  38  41  42  43  44  45  46  47 0
 3-21G
 ****
 48 0
 3-21G
 ****


