%nproc=1
%NoSave
%Mem=1900MB
#P OB98/GEN NMR

erre ene a

0 1
  C      211.431     602.274    -501.241
  O      210.937     601.290    -500.358
  H      210.831     602.266    -502.151
  H      212.473     602.051    -501.503
  H      211.367     603.267    -500.783
  P      211.574     601.258    -498.883
  C      209.520     602.027    -497.424
  O      210.760     602.350    -498.036
  C      209.258     602.918    -496.212
  O      209.052     604.281    -496.673
  C      208.027     602.508    -495.398
  O      208.296     602.764    -494.018
  C      206.953     603.465    -495.887
  O      205.902     603.625    -494.932
  C      207.780     604.730    -496.165
  N      207.113     605.639    -497.100
  C      206.374     606.678    -496.546
  O      206.287     606.803    -495.320
  N      205.710     607.544    -497.383
  C      205.730     607.342    -498.660
  N      205.031     608.212    -499.437
  C      206.463     606.219    -499.296
  C      207.133     605.428    -498.463
  O      212.997     601.940    -499.123
  O      211.636     599.896    -498.263
  H      205.464     602.753    -494.810
  H      212.955     602.736    -499.679
  H      206.439     606.086    -500.365
  H      207.707     604.586    -498.836
  H      207.971     605.282    -495.230
  H      206.512     603.090    -496.814
  H      207.757     601.459    -495.536
  H      210.160     602.928    -495.583
  H      204.520     608.952    -498.964
  H      209.517     600.974    -497.111
  H      204.927     608.125    -500.441
  H      208.731     602.156    -498.169
  P      207.828     601.696    -492.908
  C      209.577     599.836    -493.322
  O      208.211     600.224    -493.405
  O      206.435     601.868    -492.396
  O      208.885     601.941    -491.722
  H      208.402     601.900    -490.871
  H      209.686     598.836    -493.685
  H      209.900     599.883    -492.303
  H      210.172     600.498    -493.915

 6  7  8  9  10  11  12  13  14  15  16  26  30  31  32  33  35 0
 6-311+G(2d,p)
 ****
 37  38 0
 6-311+G(2d,p)
 ****
 1  2  3  4  5  17  18  19  20  21  22  23  24  25 0
 3-21G
 ****
 27  28  29  34  36  39  40  41  42  43  44  45  46 0
 3-21G
 ****


