%nproc=1
%NoSave
%Mem=1900MB
#P OB98/GEN NMR

erre ene a

0 1
  C       18.186      35.420    -109.876
  O       19.446      36.083    -109.743
  P       20.029      36.830    -111.040
  C       22.052      35.192    -111.277
  O       21.604      36.518    -111.056
  C       23.416      34.961    -110.617
  O       24.366      35.966    -111.086
  C       23.396      35.017    -109.085
  O       24.325      34.026    -108.621
  C       23.920      36.410    -108.787
  O       24.450      36.510    -107.473
  C       24.946      36.573    -109.913
  N       25.307      37.967    -110.152
  C       26.169      38.560    -109.241
  O       26.563      37.990    -108.225
  N       26.530      39.853    -109.509
  C       26.057      40.617    -110.538
  O       26.414      41.772    -110.733
  C       25.060      39.972    -111.405
  C       24.736      38.697    -111.173
  O       19.930      38.360    -110.594
  O       19.293      36.483    -112.291
  H       20.123      38.503    -109.651
  H       24.721      37.436    -107.308
  H       27.180      40.292    -108.876
  H       24.619      40.564    -112.196
  H       23.990      38.200    -111.779
  H       25.862      36.015    -109.678
  H       23.112      37.142    -108.893
  H       22.406      34.823    -108.665
  H       23.790      33.985    -110.948
  H       22.144      35.006    -112.351
  H       21.303      34.490    -110.894
  P       23.742      32.747    -107.837
  C       25.262      32.658    -105.709
  O       24.945      32.134    -106.978
  O       23.607      31.711    -109.055
  O       22.450      32.974    -107.126
  H       24.399      31.679    -109.616
  H       25.936      31.964    -105.200
  H       24.365      32.781    -105.097
  H       25.768      33.620    -105.820
  H       17.920      34.969    -108.943
  H       18.258      34.664    -110.630
  H       17.437      36.131    -110.155

 3  4  5  6  7  8  9  10  11  12  13  24  28  29  30  31  32 0
 6-311+G(2d,p)
 ****
 33  34 0
 6-311+G(2d,p)
 ****
 1  2  14  15  16  17  18  19  20  21  22  23  25  26  27 0
 3-21G
 ****
 35  36  37  38  39  40  41  42  43  44  45 0
 3-21G
 ****


