%nproc=1
%NoSave
%Mem=1900MB
#P OB98/GEN NMR

erre ene a

0 1
  C       -9.837      89.421    -307.888
  O       -9.673      89.730    -309.262
  P       -8.219      89.754    -309.930
  C       -5.943      90.882    -309.271
  O       -7.350      90.884    -309.213
  C       -5.476      92.094    -310.089
  O       -5.687      93.312    -309.339
  C       -3.991      92.003    -310.431
  O       -3.811      91.431    -311.716
  C       -3.542      93.449    -310.345
  O       -3.867      94.151    -311.560
  C       -4.403      93.974    -309.172
  N       -3.936      93.725    -307.795
  C       -2.736      94.279    -307.366
  O       -2.036      95.010    -308.059
  N       -2.347      93.946    -306.091
  C       -3.056      93.165    -305.221
  O       -2.594      92.680    -304.196
  C       -4.422      92.835    -305.636
  C       -4.787      93.106    -306.890
  O       -8.501      90.369    -311.380
  O       -7.526      88.433    -310.006
  H       -3.527      93.616    -312.298
  H       -8.558      89.661    -312.049
  H       -1.411      94.229    -305.820
  H       -5.070      92.339    -304.922
  H       -5.787      92.837    -307.228
  H       -4.575      95.052    -309.264
  H       -2.462      93.518    -310.235
  H       -3.461      91.422    -309.663
  H       -6.077      92.156    -311.006
  H       -5.586      89.951    -309.730
  H       -5.523      90.925    -308.260
  P       -2.556      90.472    -311.986
  C       -0.153      90.497    -311.095
  O       -1.286      91.275    -311.423
  O       -2.425      89.957    -313.380
  O       -2.765      89.283    -310.929
  H       -3.187      88.519    -311.368
  H        0.691      91.168    -310.902
  H        0.108      89.828    -311.922
  H       -0.354      89.915    -310.192
  H      -10.876      89.457    -307.636
  H       -9.301      90.133    -307.296
  H       -9.457      88.439    -307.695

 3  4  5  6  7  8  9  10  11  12  13  23  28  29  30  31  32 0
 6-311+G(2d,p)
 ****
 33  34 0
 6-311+G(2d,p)
 ****
 1  2  14  15  16  17  18  19  20  21  22  24  25  26  27 0
 3-21G
 ****
 35  36  37  38  39  40  41  42  43  44  45 0
 3-21G
 ****


