%nproc=1
%NoSave
%Mem=1900MB
#P OB98/GEN NMR

erre ene a

0 1
  C      425.611     832.559     279.578
  O      426.599     832.271     278.601
  H      425.923     833.438     280.152
  H      425.494     831.720     280.274
  H      424.649     832.776     279.102
  P      426.441     830.938     277.741
  C      428.780     830.007     278.354
  O      427.371     829.843     278.460
  C      429.487     829.056     279.319
  O      429.128     829.353     280.686
  C      429.113     827.598     279.103
  O      429.748     827.062     277.955
  C      429.530     826.991     280.424
  O      430.953     826.755     280.469
  C      429.133     828.112     281.413
  N      427.832     827.868     282.043
  C      427.748     826.737     282.873
  O      428.728     826.011     283.036
  N      426.539     826.450     283.459
  C      425.514     827.231     283.271
  N      424.339     826.885     283.891
  C      425.566     828.437     282.415
  C      426.747     828.679     281.837
  O      426.661     831.053     276.259
  O      424.954     830.434     278.079
  H      431.361     827.642     280.434
  H      424.313     830.824     277.455
  H      424.686     829.060     282.289
  H      426.861     829.559     281.206
  H      429.886     828.209     282.207
  H      429.026     826.041     280.616
  H      428.027     827.490     279.009
  H      430.579     829.198     279.211
  H      424.363     826.047     284.447
  H      429.001     831.042     278.633
  H      423.519     827.447     283.879
  H      429.109     829.823     277.330
  P      429.252     825.716     277.271
  C      431.637     824.789     277.478
  O      430.263     824.566     277.772
  O      429.017     825.780     275.800
  O      427.907     825.374     278.114
  H      427.167     825.975     277.860
  H      432.219     823.972     277.851
  H      431.958     825.697     277.943
  H      431.767     824.865     276.419

 6  7  8  9  10  11  12  13  14  15  16  26  30  31  32  33  35 0
 6-311+G(2d,p)
 ****
 37  38 0
 6-311+G(2d,p)
 ****
 1  2  3  4  5  17  18  19  20  21  22  23  24  25 0
 3-21G
 ****
 27  28  29  34  36  39  40  41  42  43  44  45  46 0
 3-21G
 ****


