%nproc=1
%NoSave
%Mem=1900MB
#P OB98/GEN NMR

erre ene a

0 1
  C      -88.278      18.654     103.211
  O      -88.070      17.448     102.505
  H      -89.283      19.022     102.988
  H      -87.549      19.406     102.899
  H      -88.194      18.479     104.287
  P      -86.602      16.801     102.609
  C      -86.359      18.155     100.393
  O      -85.734      17.670     101.572
  C      -85.813      19.536     100.044
  O      -86.026      20.458     101.135
  C      -84.311      19.574      99.772
  O      -83.959      19.091      98.487
  C      -84.062      21.066      99.903
  O      -84.555      21.743      98.732
  C      -84.917      21.399     101.144
  N      -84.168      21.301     102.399
  C      -83.188      22.276     102.623
  O      -82.980      23.160     101.795
  N      -82.436      22.204     103.772
  C      -82.656      21.259     104.634
  N      -81.879      21.241     105.750
  C      -83.684      20.221     104.444
  C      -84.396      20.300     103.322
  O      -86.759      15.401     101.849
  O      -86.027      16.699     103.982
  H      -84.333      22.686      98.840
  H      -85.872      14.983     101.727
  H      -83.822      19.445     105.184
  H      -85.171      19.572     103.113
  H      -85.342      22.407     101.069
  H      -83.006      21.322      99.994
  H      -83.748      19.052     100.554
  H      -86.382      19.911      99.184
  H      -81.142      21.930     105.822
  H      -87.437      18.210     100.573
  H      -81.870      20.465     106.400
  H      -86.170      17.470      99.560
  P      -82.848      17.934      98.417
  C      -81.449      19.569      96.950
  O      -81.464      18.642      98.029
  O      -83.240      17.134      97.089
  O      -82.794      17.038      99.615
  H      -83.043      16.183      97.185
  H      -80.457      19.949      96.820
  H      -82.116      20.378      97.165
  H      -81.762      19.077      96.053

 6  7  8  9  10  11  12  13  14  15  16  26  30  31  32  33  35 0
 6-311+G(2d,p)
 ****
 37  38 0
 6-311+G(2d,p)
 ****
 1  2  3  4  5  17  18  19  20  21  22  23  24  25 0
 3-21G
 ****
 27  28  29  34  36  39  40  41  42  43  44  45  46 0
 3-21G
 ****


