%nproc=1
%NoSave
%Mem=1900MB
#P OB98/GEN NMR

erre ene a

0 1
  C     -222.761     203.200      82.752
  O     -223.733     202.597      83.610
  P     -223.954     203.300      85.039
  C     -222.617     203.535      87.249
  O     -222.719     202.903      85.982
  C     -222.190     202.529      88.322
  O     -223.158     201.480      88.505
  C     -220.872     201.835      88.005
  O     -219.785     202.683      88.327
  C     -220.954     200.602      88.898
  O     -220.520     200.896      90.241
  C     -222.452     200.267      88.882
  N     -224.131     195.490      88.608
  C     -223.718     196.222      89.707
  N     -223.782     195.603      90.901
  N     -223.281     197.453      89.632
  C     -223.271     197.947      88.373
  C     -223.683     197.330      87.214
  C     -224.160     195.966      87.305
  O     -224.562     195.286      86.369
  N     -223.585     198.174      86.134
  C     -222.993     199.248      86.623
  N     -222.840     199.189      87.989
  O     -225.192     202.498      85.659
  O     -224.240     204.764      84.941
  H     -220.673     200.116      90.803
  H     -225.981     203.073      85.682
  H     -224.451     194.544      88.718
  H     -222.680     200.102      86.039
  H     -222.812     199.980      89.876
  H     -220.307     199.795      88.538
  H     -224.111     194.658      91.030
  H     -220.847     201.535      86.951
  H     -223.488     196.123      91.720
  H     -222.103     203.078      89.269
  H     -223.577     203.980      87.522
  H     -221.899     204.357      87.176
  P     -219.015     203.404      87.120
  C     -217.071     202.782      85.517
  O     -217.929     202.371      86.560
  O     -218.138     204.520      87.859
  O     -219.910     204.014      86.090
  H     -218.199     205.362      87.368
  H     -216.122     202.245      85.607
  H     -216.874     203.856      85.556
  H     -217.528     202.534      84.554
  H     -222.702     202.649      81.837
  H     -221.806     203.193      83.235
  H     -223.047     204.209      82.543

 3  4  5  6  7  8  9  10  11  12  23  26  30  31 0
 6-311+G(2d,p)
 ****
 33  35  36  37  38 0
 6-311+G(2d,p)
 ****
 1  2  13  14  15  16  17  18  19  20  21  22  24  25 0
 3-21G
 ****
 27  28  29  32  34  39  40  41  42  43  44  45  46  47  48  49 0
 3-21G
 ****


