%nproc=1
%NoSave
%Mem=1900MB
#P OB98/GEN NMR

erre ene a

0 1
  C      137.956      26.535    -373.960
  O      138.491      25.874    -375.090
  H      136.872      26.409    -373.960
  H      138.187      27.604    -374.017
  H      138.361      26.113    -373.035
  P      140.082      25.649    -375.113
  C      140.347      28.016    -376.149
  O      140.748      27.111    -375.131
  C      141.473      28.989    -376.469
  O      141.646      29.937    -375.391
  C      142.837      28.326    -376.678
  O      142.981      27.835    -378.005
  C      143.763      29.501    -376.426
  O      143.775      30.368    -377.584
  C      143.068      30.213    -375.256
  N      146.084      31.261    -371.314
  C      145.952      31.914    -372.523
  N      146.742      32.994    -372.718
  N      145.122      31.542    -373.469
  C      144.419      30.428    -373.145
  C      144.465      29.695    -371.981
  C      145.375      30.125    -370.944
  O      145.521      29.589    -369.849
  N      143.601      28.628    -372.018
  C      143.046      28.712    -373.212
  N      143.509      29.784    -373.939
  O      140.336      25.094    -376.598
  O      140.605      24.704    -374.082
  H      144.110      29.839    -378.332
  H      140.468      24.128    -376.554
  H      146.747      31.587    -370.630
  H      142.300      28.029    -373.597
  H      143.196      31.304    -375.291
  H      144.798      29.198    -376.250
  H      147.417      33.322    -372.044
  H      143.026      27.543    -375.931
  H      146.659      33.487    -373.597
  H      141.187      29.562    -377.361
  H      139.467      28.578    -375.804
  H      140.076      27.448    -377.046
  P      143.962      26.589    -378.248
  C      145.974      27.943    -379.161
  O      145.463      27.137    -378.108
  O      143.802      26.320    -379.818
  O      143.644      25.364    -377.455
  H      143.339      25.471    -379.967
  H      146.978      28.234    -378.933
  H      145.366      28.817    -379.269
  H      145.963      27.386    -380.074

 6  7  8  9  10  11  12  13  14  15  26  29  33  34 0
 6-311+G(2d,p)
 ****
 36  38  39  40  41 0
 6-311+G(2d,p)
 ****
 1  2  3  4  5  16  17  18  19  20  21  22  23  24  25 0
 3-21G
 ****
 27  28  30  31  32  35  37  42  43  44  45  46  47 0
 3-21G
 ****
 48  49 0
 3-21G
 ****


