%nproc=1
%NoSave
%Mem=1900MB
#P OB98/GEN NMR

erre ene a

0 1
  C       80.490     682.342    1179.309
  O       79.079     682.479    1179.322
  P       78.192     681.129    1179.352
  C       78.804     680.907    1176.806
  O       77.832     680.799    1177.828
  C       78.819     679.622    1175.969
  O       79.459     678.554    1176.716
  C       77.451     679.101    1175.579
  O       76.874     679.837    1174.522
  C       77.785     677.642    1175.239
  O       78.338     677.556    1173.925
  C       78.866     677.313    1176.283
  N       78.359     676.556    1177.414
  C       78.643     675.188    1177.440
  O       79.289     674.629    1176.558
  N       78.147     674.484    1178.507
  C       77.347     674.996    1179.493
  O       76.902     674.300    1180.408
  C       77.043     676.416    1179.425
  C       77.558     677.142    1178.398
  O       76.831     681.710    1179.994
  O       78.833     680.042    1180.135
  H       76.709     682.661    1179.791
  H       78.621     676.621    1173.804
  H       78.348     673.506    1178.543
  H       76.415     676.867    1180.192
  H       77.326     678.200    1178.308
  H       79.681     676.730    1175.818
  H       76.886     676.992    1175.289
  H       76.786     679.137    1176.456
  H       79.434     679.821    1175.068
  H       79.793     681.048    1177.276
  H       78.588     681.781    1176.196
  P       75.773     680.956    1174.936
  C       74.014     679.331    1175.979
  O       74.367     680.207    1174.927
  O       75.756     681.864    1173.639
  O       76.104     681.692    1176.192
  H       75.770     681.339    1172.803
  H       72.929     679.213    1176.008
  H       74.341     679.709    1176.952
  H       74.468     678.351    1175.807
  H       80.942     683.312    1179.289
  H       80.787     681.792    1178.440
  H       80.806     681.819    1180.187

 3  4  5  6  7  8  9  10  11  12  13  24  28  29  30  31  32 0
 6-311+G(2d,p)
 ****
 33  34 0
 6-311+G(2d,p)
 ****
 1  2  14  15  16  17  18  19  20  21  22  23  25  26  27 0
 3-21G
 ****
 35  36  37  38  39  40  41  42  43  44  45 0
 3-21G
 ****


