%nproc=1
%NoSave
%Mem=1900MB
#P OB98/GEN NMR

erre ene a

0 1
  C      200.560     -90.387      40.513
  O      200.964     -90.686      39.193
  P      200.762     -92.149      38.563
  C      203.036     -93.095      39.304
  O      202.235     -92.677      38.208
  C      204.489     -93.322      38.877
  O      205.312     -93.539      40.057
  C      204.698     -94.520      37.940
  O      205.772     -94.160      37.065
  C      205.136     -95.612      38.898
  O      205.805     -96.682      38.242
  C      205.987     -94.803      39.886
  N      206.173     -95.505      41.151
  C      207.056     -96.587      41.145
  O      207.579     -96.959      40.091
  N      207.286     -97.261      42.320
  C      206.611     -96.945      43.381
  N      206.886     -97.642      44.517
  C      205.579     -95.892      43.397
  C      205.422     -95.210      42.265
  O      199.779     -92.227      37.445
  O      200.368     -93.050      39.824
  H      206.603     -96.322      37.799
  H      199.422     -92.899      40.075
  H      205.003     -95.702      44.291
  H      204.689     -94.419      42.181
  H      206.978     -94.592      39.459
  H      204.259     -96.029      39.407
  H      203.809     -94.792      37.370
  H      204.845     -92.404      38.397
  H      207.613     -98.346      44.464
  H      202.627     -94.039      39.680
  H      206.480     -97.422      45.411
  H      202.977     -92.360      40.112
  P      205.594     -94.193      35.473
  C      205.870     -96.730      35.286
  O      206.401     -95.466      34.936
  O      205.907     -92.909      34.774
  O      204.062     -94.613      35.252
  H      203.799     -94.413      34.334
  H      206.322     -97.495      34.649
  H      204.785     -96.751      35.150
  H      206.109     -96.951      36.331
  H      200.784     -89.364      40.732
  H      201.083     -91.021      41.198
  H      199.507     -90.550      40.609

 3  4  5  6  7  8  9  10  11  12  13  23  27  28  29  30  32 0
 6-311+G(2d,p)
 ****
 34  35 0
 6-311+G(2d,p)
 ****
 1  2  14  15  16  17  18  19  20  21  22  24  25  26 0
 3-21G
 ****
 31  33  36  37  38  39  40  41  42  43  44  45  46 0
 3-21G
 ****


