%nproc=1
%NoSave
%Mem=1900MB
#P OB98/GEN NMR

erre ene a

0 1
  C     -307.611     481.116     493.735
  O     -308.364     482.028     494.511
  H     -306.843     481.675     493.190
  H     -308.253     480.597     493.013
  H     -307.117     480.389     494.385
  P     -309.725     481.498     495.192
  C     -310.229     483.817     496.217
  O     -310.668     482.792     495.315
  C     -311.210     484.990     496.243
  O     -311.166     485.717     495.002
  C     -312.667     484.574     496.420
  O     -312.981     483.996     497.657
  C     -313.397     485.837     495.964
  O     -313.489     486.804     497.006
  C     -312.463     486.349     494.847
  N     -313.006     486.123     493.511
  C     -314.273     486.654     493.265
  O     -314.922     487.268     494.112
  N     -314.780     486.428     492.015
  C     -314.180     485.687     491.026
  O     -314.710     485.510     489.936
  C     -312.879     485.118     491.357
  C     -312.344     485.359     492.566
  O     -309.552     480.734     496.472
  O     -310.427     480.649     494.026
  H     -313.772     487.649     496.589
  H     -311.141     480.072     494.393
  H     -315.683     486.821     491.814
  H     -312.378     484.520     490.598
  H     -311.378     484.944     492.832
  H     -312.288     487.432     494.958
  H     -314.408     485.620     495.625
  H     -312.892     483.803     495.656
  H     -310.903     485.670     497.050
  H     -309.253     484.164     495.864
  H     -310.110     483.391     497.223
  P     -313.318     482.444     497.858
  C     -311.580     482.364     499.816
  O     -312.868     482.010     499.340
  O     -312.967     481.540     496.723
  O     -314.933     482.474     497.983
  H     -315.261     481.647     497.571
  H     -311.454     481.996     500.813
  H     -311.479     483.429     499.814
  H     -310.834     481.934     499.180

 6  7  8  9  10  11  12  13  14  15  16  26  31  32  33  34  35 0
 6-311+G(2d,p)
 ****
 36  37 0
 6-311+G(2d,p)
 ****
 1  2  3  4  5  17  18  19  20  21  22  23  24  25 0
 3-21G
 ****
 27  28  29  30  38  39  40  41  42  43  44  45 0
 3-21G
 ****


