%nproc=1
%NoSave
%Mem=1900MB
#P OB98/GEN NMR

erre ene a

0 1
  C      -50.008     -81.689     -41.581
  O      -49.482     -82.887     -42.119
  H      -50.752     -81.293     -42.276
  H      -49.216     -80.946     -41.455
  H      -50.494     -81.883     -40.622
  P      -48.333     -83.649     -41.305
  C      -49.963     -85.626     -40.989
  O      -49.082     -84.705     -40.359
  C      -49.498     -87.058     -40.741
  O      -49.290     -87.283     -39.333
  C      -50.484     -88.129     -41.205
  O      -50.360     -88.353     -42.599
  C      -50.017     -89.314     -40.379
  O      -48.818     -89.866     -40.959
  C      -49.687     -88.649     -39.030
  N      -52.744     -91.387     -36.045
  C      -51.816     -91.802     -36.981
  N      -51.709     -93.134     -37.169
  N      -51.070     -90.985     -37.677
  C      -51.334     -89.681     -37.434
  C      -52.239     -89.146     -36.546
  C      -53.012     -90.063     -35.733
  O      -53.827     -89.736     -34.875
  N      -52.294     -87.779     -36.644
  C      -51.384     -87.484     -37.552
  N      -50.778     -88.605     -38.071
  O      -47.350     -82.778     -40.584
  O      -47.624     -84.577     -42.399
  H      -48.592     -90.665     -40.447
  H      -46.863     -84.123     -42.807
  H      -53.296     -92.063     -35.544
  H      -51.122     -86.482     -37.869
  H      -48.843     -89.133     -38.527
  H      -50.752     -90.118     -40.335
  H      -52.356     -93.802     -36.776
  H      -51.511     -87.879     -40.918
  H      -51.077     -93.454     -37.893
  H      -48.524     -87.185     -41.233
  H      -49.960     -85.404     -42.061
  H      -50.982     -85.501     -40.610
  P      -51.556     -89.000     -43.456
  C      -51.892     -86.783     -44.745
  O      -52.473     -87.763     -43.903
  O      -52.287     -90.104     -42.775
  O      -50.870     -89.420     -44.835
  H      -50.444     -90.312     -44.797
  H      -52.615     -86.024     -44.960
  H      -51.573     -87.241     -45.658
  H      -51.049     -86.344     -44.253

 6  7  8  9  10  11  12  13  14  15  26  29  33  34 0
 6-311+G(2d,p)
 ****
 36  38  39  40  41 0
 6-311+G(2d,p)
 ****
 1  2  3  4  5  16  17  18  19  20  21  22  23  24  25 0
 3-21G
 ****
 27  28  30  31  32  35  37  42  43  44  45  46  47 0
 3-21G
 ****
 48  49 0
 3-21G
 ****


