%nproc=1
%NoSave
%Mem=1900MB
#P OB98/GEN NMR

erre ene a

0 1
  C      -18.056     -79.852      -5.882
  O      -17.041     -79.867      -6.882
  P      -16.866     -80.996      -7.994
  C      -16.120     -79.435      -9.974
  O      -15.803     -80.488      -9.074
  C      -15.692     -78.074      -9.407
  O      -14.295     -78.160      -8.990
  C      -15.786     -76.948     -10.442
  O      -16.318     -75.736      -9.920
  C      -14.380     -76.898     -11.015
  O      -14.078     -75.674     -11.667
  C      -13.528     -77.238      -9.796
  N       -8.733     -76.374     -11.317
  C       -9.794     -75.497     -11.232
  N       -9.562     -74.224     -11.614
  N      -10.987     -75.840     -10.823
  C      -11.106     -77.156     -10.546
  C      -10.133     -78.127     -10.607
  C       -8.802     -77.727     -11.013
  O       -7.821     -78.459     -11.086
  N      -10.626     -79.353     -10.240
  C      -11.897     -79.129      -9.978
  N      -12.237     -77.805     -10.141
  O      -18.127     -81.593      -8.521
  O      -16.062     -82.165      -7.228
  H      -13.165     -75.732     -12.004
  H      -16.362     -83.008      -7.622
  H       -7.829     -76.050     -11.617
  H      -12.611     -79.878      -9.654
  H      -13.313     -76.358      -9.185
  H      -14.302     -77.690     -11.770
  H       -8.706     -73.922     -12.053
  H      -16.489     -77.212     -11.240
  H      -10.390     -73.645     -11.760
  H      -16.297     -77.856      -8.520
  H      -17.209     -79.462     -10.097
  H      -15.672     -79.614     -10.953
  P      -17.846     -75.289      -9.794
  C      -17.435     -74.210      -7.505
  O      -17.928     -74.023      -8.818
  O      -18.547     -76.445      -8.939
  O      -18.552     -75.110     -11.098
  H      -19.247     -76.872      -9.473
  H      -17.784     -73.385      -6.878
  H      -16.342     -74.206      -7.519
  H      -17.795     -75.153      -7.086
  H      -17.940     -78.982      -5.269
  H      -17.972     -80.729      -5.275
  H      -19.018     -79.833      -6.350

 3  4  5  6  7  8  9  10  11  12  23  26  30  31 0
 6-311+G(2d,p)
 ****
 33  35  36  37  38 0
 6-311+G(2d,p)
 ****
 1  2  13  14  15  16  17  18  19  20  21  22  24  25 0
 3-21G
 ****
 27  28  29  32  34  39  40  41  42  43  44  45  46  47  48  49 0
 3-21G
 ****


