%nproc=1
%NoSave
%Mem=1900MB
#P OB98/GEN NMR

erre ene a

0 1
  C     -157.246     359.342    -312.891
  O     -158.514     359.699    -312.382
  P     -158.834     359.640    -310.812
  C     -159.547     362.098    -310.567
  O     -158.564     361.123    -310.258
  C     -159.489     363.276    -309.597
  O     -159.699     362.803    -308.239
  C     -158.167     364.056    -309.615
  O     -158.496     365.422    -309.356
  C     -157.417     363.454    -308.441
  O     -156.360     364.287    -307.980
  C     -158.568     363.234    -307.450
  N     -158.220     362.272    -306.412
  C     -157.517     362.761    -305.308
  O     -157.151     363.939    -305.281
  N     -157.190     361.899    -304.293
  C     -157.456     360.636    -304.418
  N     -157.119     359.829    -303.378
  C     -158.083     360.055    -305.622
  C     -158.449     360.923    -306.564
  O     -158.140     358.554    -310.064
  O     -160.429     359.537    -310.759
  H     -156.737     365.156    -307.730
  H     -160.722     358.616    -310.970
  H     -158.233     358.991    -305.703
  H     -158.916     360.595    -307.479
  H     -158.848     364.179    -306.967
  H     -156.980     362.493    -308.736
  H     -157.615     363.965    -310.556
  H     -160.320     363.955    -309.834
  H     -156.705     360.269    -302.565
  H     -160.531     361.629    -310.487
  H     -157.354     358.849    -303.338
  H     -159.423     362.438    -311.602
  P     -157.971     366.606    -310.304
  C     -160.345     367.299    -310.949
  O     -159.092     366.840    -311.416
  O     -156.586     366.421    -310.833
  O     -158.081     367.919    -309.394
  H     -157.551     368.634    -309.792
  H     -160.922     367.689    -311.794
  H     -160.220     368.093    -310.207
  H     -160.896     366.467    -310.497
  H     -157.245     359.452    -313.955
  H     -157.033     358.325    -312.637
  H     -156.499     359.979    -312.466

 3  4  5  6  7  8  9  10  11  12  13  23  27  28  29  30  32 0
 6-311+G(2d,p)
 ****
 34  35 0
 6-311+G(2d,p)
 ****
 1  2  14  15  16  17  18  19  20  21  22  24  25  26 0
 3-21G
 ****
 31  33  36  37  38  39  40  41  42  43  44  45  46 0
 3-21G
 ****


