%nproc=1
%NoSave
%Mem=1900MB
#P OB98/GEN NMR

erre ene a

0 1
  C       90.096     331.690    -160.732
  O       90.254     332.722    -161.710
  P       90.690     334.189    -161.240
  C       89.630     336.261    -160.112
  O       89.425     334.945    -160.614
  C       88.486     337.179    -160.562
  O       88.503     337.383    -161.996
  C       87.111     336.598    -160.266
  O       86.728     336.520    -158.910
  C       86.216     337.399    -161.198
  O       85.862     338.660    -160.633
  C       87.140     337.595    -162.424
  N       86.792     336.714    -163.541
  C       86.166     337.322    -164.625
  O       85.869     338.513    -164.651
  N       85.855     336.497    -165.672
  C       86.074     335.151    -165.726
  O       85.754     334.455    -166.682
  C       86.717     334.561    -164.539
  C       87.043     335.357    -163.519
  O       91.473     334.980    -162.236
  O       91.588     333.891    -159.942
  H       85.317     338.481    -159.844
  H       92.356     334.494    -159.966
  H       85.409     336.922    -166.470
  H       86.901     333.497    -164.543
  H       87.518     334.943    -162.635
  H       87.083     338.630    -162.784
  H       85.284     336.870    -161.415
  H       87.098     335.560    -160.634
  H       88.618     338.154    -160.089
  H       90.587     336.647    -160.469
  H       89.701     336.218    -159.020
  P       86.314     335.150    -158.190
  C       84.426     333.387    -158.419
  O       85.015     334.563    -158.926
  O       86.320     335.129    -156.698
  O       87.463     334.155    -158.716
  H       87.650     333.504    -158.018
  H       83.571     333.126    -159.047
  H       84.071     333.549    -157.396
  H       85.140     332.558    -158.441
  H       89.804     330.782    -161.216
  H       89.343     331.977    -160.029
  H       91.023     331.539    -160.220

 3  4  5  6  7  8  9  10  11  12  13  23  28  29  30  31  32 0
 6-311+G(2d,p)
 ****
 33  34 0
 6-311+G(2d,p)
 ****
 1  2  14  15  16  17  18  19  20  21  22  24  25  26  27 0
 3-21G
 ****
 35  36  37  38  39  40  41  42  43  44  45 0
 3-21G
 ****


