%nproc=1
%NoSave
%Mem=1900MB
#P OB98/GEN NMR

erre ene a

0 1
  C      277.936      64.859     -52.334
  O      278.108      63.601     -51.712
  H      278.762      65.043     -53.024
  H      277.002      64.846     -52.901
  H      277.884      65.657     -51.589
  P      279.249      63.488     -50.590
  C      281.835      63.701     -50.640
  O      280.605      64.027     -51.268
  C      282.963      64.572     -51.194
  O      283.271      64.128     -52.546
  C      282.632      66.072     -51.254
  O      283.808      66.812     -50.904
  C      282.327      66.300     -52.724
  O      282.549      67.644     -53.133
  C      283.269      65.295     -53.383
  N      283.956      66.440     -58.295
  C      284.701      66.693     -57.193
  N      284.471      66.305     -55.924
  C      283.379      65.521     -55.859
  C      282.523      65.173     -56.889
  C      282.841      65.683     -58.159
  N      282.054      65.489     -59.273
  N      281.478      64.402     -56.411
  C      281.688      64.315     -55.108
  N      282.822      64.974     -54.731
  O      279.479      61.902     -50.494
  O      278.910      64.083     -49.265
  H      281.860      68.215     -52.739
  H      278.856      61.520     -49.850
  H      285.590      67.298     -57.354
  H      281.038      63.815     -54.403
  H      284.296      65.668     -53.462
  H      281.283      66.050     -52.924
  H      281.802      66.368     -50.604
  H      283.863      64.400     -50.589
  H      282.072      62.648     -50.832
  H      282.303      65.984     -60.116
  H      281.166      65.020     -59.166
  H      281.738      63.845     -49.556
  P      284.266      66.786     -49.366
  C      283.593      67.988     -47.155
  O      283.366      67.832     -48.551
  O      285.703      67.481     -49.402
  O      284.331      65.412     -48.777
  H      286.283      67.099     -48.714
  H      282.915      68.717     -46.763
  H      284.600      68.312     -46.991
  H      283.435      67.052     -46.661

 6  7  8  9  10  11  12  13  14  15  25  28  32  33  34  35 0
 6-311+G(2d,p)
 ****
 36  39  40 0
 6-311+G(2d,p)
 ****
 1  2  3  4  5  16  17  18  19  20  21  22  23  24 0
 3-21G
 ****
 26  27  29  30  31  37  38  41  42  43  44  45  46  47 0
 3-21G
 ****
 48 0
 3-21G
 ****


