%nproc=1
%NoSave
%Mem=1900MB
#P OB98/GEN NMR

erre ene a

0 1
  C     -790.452     511.913     214.655
  O     -790.815     512.397     215.935
  P     -792.052     513.419     216.034
  C     -790.587     515.308     217.138
  O     -791.400     514.886     216.053
  C     -790.275     516.804     217.021
  O     -789.216     516.995     216.057
  C     -791.430     517.661     216.517
  O     -792.391     517.898     217.541
  C     -790.687     518.898     216.031
  O     -790.364     519.761     217.141
  C     -789.408     518.286     215.439
  N     -789.437     518.174     213.979
  C     -788.686     519.109     213.272
  O     -788.014     519.989     213.820
  N     -788.743     519.004     211.907
  C     -789.506     518.130     211.202
  O     -789.553     518.112     209.967
  C     -790.316     517.194     211.986
  C     -790.237     517.256     213.330
  O     -792.529     513.164     217.536
  O     -793.089     513.183     214.978
  H     -791.805     512.852     218.097
  H     -789.746     520.431     216.788
  H     -788.186     519.662     211.372
  H     -790.942     516.485     211.466
  H     -790.831     516.575     213.940
  H     -788.528     518.890     215.709
  H     -791.280     519.486     215.317
  H     -791.924     517.164     215.669
  H     -789.917     517.156     217.992
  H     -789.658     514.735     217.144
  H     -791.124     515.111     218.077
  P     -793.781     518.550     217.076
  C     -793.033     520.771     218.248
  O     -793.564     520.135     217.104
  O     -794.700     518.253     218.355
  O     -794.309     517.992     215.797
  H     -794.237     518.415     219.201
  H     -792.633     521.746     217.957
  H     -792.227     520.177     218.692
  H     -793.826     520.915     218.989
  H     -789.619     511.248     214.748
  H     -790.183     512.736     214.026
  H     -791.280     511.389     214.224

 3  4  5  6  7  8  9  10  11  12  13  24  28  29  30  31  32 0
 6-311+G(2d,p)
 ****
 33  34 0
 6-311+G(2d,p)
 ****
 1  2  14  15  16  17  18  19  20  21  22  23  25  26  27 0
 3-21G
 ****
 35  36  37  38  39  40  41  42  43  44  45 0
 3-21G
 ****


