%nproc=1
%NoSave
%Mem=1900MB
#P OB98/GEN NMR

erre ene a

0 1
  C     -146.312     143.416     394.573
  O     -144.939     143.114     394.754
  P     -143.900     143.697     393.677
  C     -142.980     146.001     394.444
  O     -143.999     145.297     393.748
  C     -143.088     147.507     394.188
  O     -142.124     148.194     395.035
  C     -142.810     147.932     392.738
  O     -143.666     149.047     392.465
  C     -141.353     148.359     392.803
  O     -140.932     149.153     391.708
  C     -141.331     149.038     394.170
  N     -138.223     152.118     396.815
  C     -139.539     152.206     396.518
  N     -140.300     151.343     395.815
  C     -139.573     150.290     395.411
  C     -138.222     150.068     395.621
  C     -137.536     151.043     396.363
  N     -136.187     150.953     396.657
  N     -137.817     148.889     395.032
  C     -138.908     148.404     394.474
  N     -139.996     149.205     394.692
  O     -144.595     143.348     392.279
  O     -142.513     143.137     393.771
  H     -141.445     149.982     391.681
  H     -143.933     143.076     391.617
  H     -140.048     153.092     396.896
  H     -138.960     147.494     393.891
  H     -141.807     150.028     394.144
  H     -140.722     147.461     392.811
  H     -143.009     147.142     392.009
  H     -144.087     147.839     394.497
  H     -142.001     145.665     394.092
  H     -135.750     151.790     397.015
  H     -135.650     150.266     396.144
  H     -143.050     145.779     395.514
  P     -144.284     149.208     390.993
  C     -146.211     147.538     391.306
  O     -144.955     147.780     390.699
  O     -142.957     149.131     390.092
  O     -145.117     150.421     390.765
  H     -142.414     148.355     390.324
  H     -146.594     146.579     390.947
  H     -146.921     148.326     391.044
  H     -146.093     147.484     392.392
  H     -146.883     142.966     395.358
  H     -146.640     143.033     393.629
  H     -146.450     144.477     394.595

 3  4  5  6  7  8  9  10  11  12  22  25  29  30  31  32 0
 6-311+G(2d,p)
 ****
 33  36  37 0
 6-311+G(2d,p)
 ****
 1  2  13  14  15  16  17  18  19  20  21  23  24  26 0
 3-21G
 ****
 27  28  34  35  38  39  40  41  42  43  44  45  46  47  48 0
 3-21G
 ****


