%nproc=1
%NoSave
%Mem=1900MB
#P OB98/GEN NMR

erre ene a

0 1
  C     -233.706     322.150     157.578
  O     -232.346     322.131     157.196
  H     -234.294     322.548     156.748
  H     -233.848     322.795     158.451
  H     -234.059     321.140     157.806
  P     -231.272     321.466     158.185
  C     -231.013     323.763     159.322
  O     -231.233     322.372     159.507
  C     -229.974     324.265     160.323
  O     -229.801     325.696     160.197
  C     -230.352     324.016     161.778
  O     -230.159     322.657     162.126
  C     -229.423     324.997     162.478
  O     -228.090     324.471     162.577
  C     -229.456     326.202     161.506
  N     -230.395     327.247     161.935
  C     -229.950     328.093     162.949
  O     -228.846     327.987     163.473
  N     -230.848     329.040     163.369
  C     -232.140     329.158     162.944
  O     -232.973     329.870     163.502
  C     -232.530     328.291     161.826
  C     -231.659     327.379     161.390
  O     -229.939     321.162     157.585
  O     -232.006     320.131     158.692
  H     -231.653     319.365     158.196
  H     -227.774     324.337     161.665
  H     -230.553     329.625     164.134
  H     -233.527     328.396     161.418
  H     -231.935     326.705     160.580
  H     -228.462     326.654     161.420
  H     -229.750     325.230     163.494
  H     -231.388     324.323     161.958
  H     -229.013     323.789     160.083
  H     -231.960     324.291     159.486
  H     -230.679     323.942     158.293
  P     -231.075     321.951     163.233
  C     -229.962     323.256     165.138
  O     -231.183     322.942     164.489
  O     -230.677     320.553     163.580
  O     -232.549     321.987     162.614
  H     -232.924     321.088     162.623
  H     -230.153     323.920     165.955
  H     -229.300     323.728     164.443
  H     -229.512     322.357     165.506

 6  7  8  9  10  11  12  13  14  15  16  27  31  32  33  34  35 0
 6-311+G(2d,p)
 ****
 36  37 0
 6-311+G(2d,p)
 ****
 1  2  3  4  5  17  18  19  20  21  22  23  24  25 0
 3-21G
 ****
 26  28  29  30  38  39  40  41  42  43  44  45 0
 3-21G
 ****


