%nproc=1
%NoSave
%Mem=1900MB
#P OB98/GEN NMR

erre ene a

0 1
  C      237.846     -23.966    -300.544
  O      238.257     -24.488    -301.792
  H      238.570     -24.235    -299.773
  H      237.799     -22.876    -300.620
  H      236.855     -24.344    -300.277
  P      238.224     -26.084    -301.953
  C      240.794     -26.469    -302.021
  O      239.586     -26.619    -301.288
  C      241.927     -27.244    -301.345
  O      241.635     -28.665    -301.428
  C      243.296     -27.012    -301.991
  O      244.290     -26.959    -300.966
  C      243.500     -28.253    -302.844
  O      244.875     -28.526    -303.080
  C      242.781     -29.312    -302.012
  N      244.443     -33.171    -304.913
  C      245.096     -32.267    -304.151
  N      244.576     -31.271    -303.403
  C      243.233     -31.294    -303.453
  C      242.429     -32.152    -304.186
  C      243.090     -33.125    -304.953
  N      242.434     -34.026    -305.760
  N      241.095     -31.836    -304.005
  C      241.098     -30.807    -303.181
  N      242.366     -30.442    -302.823
  O      238.473     -26.274    -303.526
  O      236.974     -26.756    -301.499
  H      244.936     -29.272    -303.714
  H      237.639     -26.117    -304.006
  H      246.180     -32.349    -304.149
  H      240.219     -30.289    -302.823
  H      243.409     -29.706    -301.203
  H      243.007     -28.119    -303.814
  H      243.335     -26.095    -302.583
  H      241.941     -26.985    -300.280
  H      241.053     -25.407    -302.067
  H      242.989     -34.652    -306.321
  H      241.430     -33.966    -305.850
  H      240.645     -26.845    -303.039
  P      244.703     -25.500    -300.437
  C      246.329     -24.811    -302.333
  O      245.078     -24.586    -301.700
  O      246.111     -25.753    -299.717
  O      243.709     -24.904    -299.493
  H      246.107     -25.355    -298.827
  H      246.441     -24.133    -303.153
  H      246.370     -25.817    -302.694
  H      247.119     -24.652    -301.629

 6  7  8  9  10  11  12  13  14  15  25  28  32  33  34  35 0
 6-311+G(2d,p)
 ****
 36  39  40 0
 6-311+G(2d,p)
 ****
 1  2  3  4  5  16  17  18  19  20  21  22  23  24 0
 3-21G
 ****
 26  27  29  30  31  37  38  41  42  43  44  45  46  47 0
 3-21G
 ****
 48 0
 3-21G
 ****


