%nproc=1
%NoSave
%Mem=1900MB
#P OB98/GEN NMR

erre ene a

0 1
  C      365.361     623.931    -213.157
  O      366.523     623.113    -213.236
  P      366.758     622.046    -212.060
  C      368.786     622.715    -210.577
  O      367.397     622.871    -210.838
  C      369.617     623.570    -211.539
  O      369.076     624.901    -211.601
  C      371.072     623.728    -211.133
  O      371.809     622.569    -211.449
  C      371.469     624.959    -211.949
  O      371.898     624.584    -213.269
  C      370.159     625.782    -211.999
  N      370.211     626.966    -211.172
  C      370.687     628.125    -211.800
  O      371.060     628.083    -212.981
  N      370.786     629.285    -211.069
  C      370.431     629.280    -209.811
  N      370.541     630.462    -209.141
  C      369.944     628.083    -209.115
  C      369.866     626.964    -209.833
  O      367.979     621.170    -212.603
  O      365.557     621.213    -211.720
  H      371.189     623.991    -213.615
  H      367.963     620.272    -212.215
  H      369.665     628.137    -208.071
  H      369.523     626.042    -209.400
  H      369.949     626.095    -213.035
  H      372.308     625.498    -211.496
  H      371.147     623.959    -210.067
  H      369.546     623.131    -212.547
  H      370.878     631.278    -209.644
  H      369.071     621.664    -210.707
  H      370.274     630.574    -208.174
  H      368.986     623.003    -209.541
  P      372.969     622.119    -210.438
  C      375.404     622.753    -210.958
  O      374.112     623.226    -210.601
  O      373.606     620.858    -211.194
  O      372.557     621.788    -209.040
  H      374.270     620.439    -210.614
  H      376.028     623.614    -211.195
  H      375.342     622.109    -211.845
  H      375.837     622.212    -210.117
  H      365.331     624.590    -213.999
  H      365.390     624.506    -212.255
  H      364.488     623.312    -213.158

 3  4  5  6  7  8  9  10  11  12  13  21  23  27  28  29  30  32 0
 6-311+G(2d,p)
 ****
 34  35 0
 6-311+G(2d,p)
 ****
 1  2  14  15  16  17  18  19  20  22  24  25  26 0
 3-21G
 ****
 31  33  36  37  38  39  40  41  42  43  44  45  46 0
 3-21G
 ****


