%nproc=1
%NoSave
%Mem=1900MB
#P OB98/GEN NMR

erre ene a

0 1
  C     -425.630    -203.375    -191.914
  O     -425.554    -203.461    -193.339
  P     -424.137    -203.140    -194.026
  C     -424.125    -200.548    -194.354
  O     -423.749    -201.655    -193.555
  C     -424.140    -199.258    -193.527
  O     -422.772    -198.810    -193.289
  C     -424.906    -198.096    -194.174
  O     -425.564    -197.390    -193.110
  C     -423.799    -197.245    -194.767
  O     -424.214    -195.902    -194.972
  C     -422.703    -197.431    -193.712
  N     -421.375    -197.088    -194.209
  C     -421.089    -195.738    -194.372
  O     -421.925    -194.854    -194.190
  N     -419.826    -195.439    -194.796
  C     -418.862    -196.341    -195.141
  O     -417.743    -196.017    -195.517
  C     -419.258    -197.758    -195.058
  C     -420.476    -198.058    -194.605
  O     -424.558    -202.977    -195.558
  O     -423.110    -204.190    -193.755
  H     -425.421    -202.547    -195.681
  H     -423.456    -195.384    -195.317
  H     -419.588    -194.461    -194.888
  H     -418.540    -198.499    -195.380
  H     -420.803    -199.085    -194.553
  H     -422.912    -196.810    -192.831
  H     -423.484    -197.665    -195.728
  H     -425.643    -198.431    -194.907
  H     -424.578    -199.491    -192.547
  H     -425.127    -200.710    -194.767
  H     -423.438    -200.464    -195.205
  P     -427.153    -197.577    -192.942
  C     -428.122    -195.772    -194.572
  O     -427.828    -197.126    -194.322
  O     -427.475    -196.342    -191.966
  O     -427.578    -198.890    -192.374
  H     -427.064    -195.514    -192.254
  H     -428.351    -195.650    -195.634
  H     -427.273    -195.132    -194.321
  H     -428.995    -195.465    -193.988
  H     -426.623    -203.612    -191.595
  H     -425.383    -202.381    -191.603
  H     -424.940    -204.067    -191.478

 3  4  5  6  7  8  9  10  11  12  13  24  28  29  30  31  32 0
 6-311+G(2d,p)
 ****
 33  34 0
 6-311+G(2d,p)
 ****
 1  2  14  15  16  17  18  19  20  21  22  23  25  26  27 0
 3-21G
 ****
 35  36  37  38  39  40  41  42  43  44  45 0
 3-21G
 ****


