%nproc=1
%NoSave
%Mem=1900MB
#P OB98/GEN NMR

erre ene a

0 1
  C      136.441     116.991     -87.283
  O      135.977     118.249     -87.729
  H      137.393     116.774     -87.777
  H      135.725     116.207     -87.548
  H      136.602     116.996     -86.201
  P      134.670     118.877     -87.043
  C      132.142     118.363     -87.021
  O      133.422     117.988     -87.511
  C      131.069     117.460     -87.628
  O      130.985     117.674     -89.054
  C      131.345     115.972     -87.448
  O      131.054     115.553     -86.129
  C      130.439     115.383     -88.519
  O      129.082     115.306     -88.057
  C      130.580     116.422     -89.654
  N      131.521     116.006     -90.692
  C      131.010     115.196     -91.705
  O      129.841     114.807     -91.734
  N      131.900     114.822     -92.675
  C      133.241     115.072     -92.671
  O      134.013     114.636     -93.519
  C      133.732     115.909     -91.567
  C      132.862     116.332     -90.643
  O      134.496     120.349     -87.212
  O      134.831     118.482     -85.497
  H      129.087     114.706     -87.290
  H      135.101     119.269     -84.989
  H      131.553     114.225     -93.409
  H      134.787     116.143     -91.537
  H      133.205     116.944     -89.819
  H      129.606     116.604     -90.125
  H      130.740     114.375     -88.805
  H      132.387     115.749     -87.704
  H      130.099     117.736     -87.188
  H      131.946     119.404     -87.306
  H      132.142     118.287     -85.929
  P      132.038     114.540     -85.377
  C      133.239     112.333     -85.926
  O      132.212     113.245     -86.310
  O      131.692     114.250     -83.954
  O      133.467     115.253     -85.479
  H      133.806     115.431     -84.581
  H      133.264     111.514     -86.614
  H      133.040     111.966     -84.941
  H      134.184     112.835     -85.935

 6  7  8  9  10  11  12  13  14  15  16  26  31  32  33  34  35 0
 6-311+G(2d,p)
 ****
 36  37 0
 6-311+G(2d,p)
 ****
 1  2  3  4  5  17  18  19  20  21  22  23  24  25 0
 3-21G
 ****
 27  28  29  30  38  39  40  41  42  43  44  45 0
 3-21G
 ****


