%nproc=1
%NoSave
%Mem=1900MB
#P OB98/GEN NMR

erre ene a

0 1
  C      148.204     -76.671     -24.492
  O      148.653     -77.451     -25.587
  P      148.512     -76.829     -27.061
  C      145.978     -77.291     -27.457
  O      147.318     -77.623     -27.782
  C      145.020     -78.376     -27.955
  O      143.697     -78.102     -27.426
  C      144.889     -78.466     -29.479
  O      144.648     -79.842     -29.797
  C      143.641     -77.652     -29.764
  O      143.047     -77.976     -31.017
  C      142.792     -78.000     -28.546
  N      137.834     -77.056     -28.239
  C      138.493     -78.203     -28.644
  N      137.716     -79.262     -28.952
  N      139.793     -78.301     -28.735
  C      140.437     -77.164     -28.378
  C      139.898     -75.958     -28.001
  C      138.462     -75.874     -27.867
  O      137.841     -74.909     -27.430
  N      140.868     -75.012     -27.804
  C      141.997     -75.669     -27.984
  N      141.788     -76.987     -28.289
  O      149.823     -77.365     -27.800
  O      148.382     -75.340     -27.127
  H      142.219     -77.461     -31.098
  H      150.547     -76.711     -27.751
  H      136.830     -77.046     -28.170
  H      142.985     -75.248     -27.903
  H      142.274     -78.961     -28.657
  H      143.892     -76.584     -29.777
  H      136.710     -79.267     -28.874
  H      145.767     -78.098     -30.018
  H      138.174     -80.126     -29.219
  H      145.345     -79.338     -27.541
  H      145.719     -76.346     -27.946
  H      145.885     -77.157     -26.375
  P      145.489     -80.493     -30.996
  C      143.773     -80.129     -32.901
  O      144.446     -81.054     -32.071
  O      146.084     -81.825     -30.331
  O      146.587     -79.632     -31.532
  H      146.952     -82.028     -30.724
  H      143.433     -80.646     -33.802
  H      144.426     -79.302     -33.196
  H      142.903     -79.732     -32.373
  H      148.361     -77.211     -23.582
  H      147.161     -76.461     -24.607
  H      148.751     -75.752     -24.460

 3  4  5  6  7  8  9  10  11  12  23  26  30  31 0
 6-311+G(2d,p)
 ****
 33  35  36  37  38 0
 6-311+G(2d,p)
 ****
 1  2  13  14  15  16  17  18  19  20  21  22  24  25 0
 3-21G
 ****
 27  28  29  32  34  39  40  41  42  43  44  45  46  47  48  49 0
 3-21G
 ****


