%nproc=1
%NoSave
%Mem=1900MB
#P OB98/GEN NMR

erre ene a

0 1
  C     -495.974     407.290    -400.857
  O     -496.626     408.343    -400.184
  H     -496.668     406.452    -400.964
  H     -495.109     406.952    -400.274
  H     -495.649     407.607    -401.852
  P     -495.841     409.738    -400.054
  C     -497.759     411.095    -401.166
  O     -496.960     410.894    -400.009
  C     -498.441     412.467    -401.111
  O     -499.587     412.384    -400.217
  C     -497.522     413.582    -400.607
  O     -497.807     414.779    -401.344
  C     -497.949     413.774    -399.160
  O     -497.665     415.084    -398.668
  C     -499.446     413.428    -399.234
  N     -499.964     413.015    -397.929
  C     -501.034     413.746    -397.410
  O     -501.501     414.696    -398.054
  N     -501.527     413.430    -396.175
  C     -500.934     412.512    -395.463
  N     -501.447     412.262    -394.229
  C     -499.757     411.757    -395.938
  C     -499.329     412.053    -397.172
  O     -495.177     409.926    -401.499
  O     -494.836     409.807    -398.958
  H     -497.779     415.719    -399.399
  H     -494.332     410.409    -401.444
  H     -499.280     411.027    -395.304
  H     -498.464     411.561    -397.600
  H     -500.031     414.296    -399.577
  H     -497.425     413.049    -398.527
  H     -496.461     413.345    -400.690
  H     -498.834     412.701    -402.110
  H     -502.244     412.809    -393.935
  H     -498.535     410.318    -401.203
  H     -501.043     411.612    -393.575
  H     -497.137     411.013    -402.061
  P     -496.651     415.309    -402.329
  C     -498.227     415.612    -404.368
  O     -497.330     416.221    -403.450
  O     -496.212     413.988    -403.124
  O     -495.502     415.932    -401.608
  H     -495.324     413.693    -402.824
  H     -498.594     416.350    -405.050
  H     -499.047     415.181    -403.833
  H     -497.715     414.846    -404.912

 6  7  8  9  10  11  12  13  14  15  16  26  30  31  32  33  35 0
 6-311+G(2d,p)
 ****
 37  38 0
 6-311+G(2d,p)
 ****
 1  2  3  4  5  17  18  19  20  21  22  23  24  25 0
 3-21G
 ****
 27  28  29  34  36  39  40  41  42  43  44  45  46 0
 3-21G
 ****


