%nproc=1
%NoSave
%Mem=1900MB
#P OB98/GEN NMR

erre ene a

0 1
  C      -77.676     363.565    -506.604
  O      -78.392     364.645    -507.170
  H      -76.695     363.506    -507.082
  H      -78.210     362.625    -506.780
  H      -77.540     363.720    -505.531
  P      -79.865     364.914    -506.590
  C      -79.556     366.267    -504.387
  O      -79.712     364.991    -504.994
  C      -80.879     366.720    -503.787
  O      -81.853     366.932    -504.839
  C      -81.515     365.695    -502.853
  O      -80.917     365.692    -501.568
  C      -82.962     366.164    -502.843
  O      -83.166     367.231    -501.908
  C      -83.158     366.666    -504.279
  N      -87.200     366.008    -507.331
  C      -86.696     367.104    -506.720
  N      -85.606     367.202    -505.931
  C      -84.996     366.007    -505.819
  C      -85.388     364.807    -506.385
  C      -86.547     364.831    -507.179
  N      -87.075     363.710    -507.783
  N      -84.530     363.790    -506.011
  C      -83.633     364.369    -505.242
  N      -83.872     365.707    -505.102
  O      -80.611     363.521    -506.838
  O      -80.592     366.057    -507.216
  H      -83.993     367.678    -502.179
  H      -81.166     363.587    -507.639
  H      -87.250     368.027    -506.880
  H      -82.803     363.863    -504.761
  H      -83.725     367.608    -504.315
  H      -83.634     365.346    -502.569
  H      -81.468     364.697    -503.303
  H      -80.724     367.675    -503.271
  H      -79.235     366.991    -505.146
  H      -78.781     366.200    -503.616
  H      -87.945     363.791    -508.278
  H      -86.660     362.808    -507.583
  P      -80.862     364.303    -500.775
  C      -78.294     363.892    -501.024
  O      -79.611     363.473    -501.351
  O      -82.132     363.500    -501.318
  O      -80.879     364.430    -499.288
  H      -82.520     362.959    -500.600
  H      -77.586     363.235    -501.485
  H      -78.165     363.867    -499.962
  H      -78.139     364.890    -501.379

 6  7  8  9  10  11  12  13  14  15  25  28  32  33  34  35 0
 6-311+G(2d,p)
 ****
 36  37  40 0
 6-311+G(2d,p)
 ****
 1  2  3  4  5  16  17  18  19  20  21  22  23  24 0
 3-21G
 ****
 26  27  29  30  31  38  39 41  42  43  44  45  46  47  48 0
 3-21G
 ****


