%nproc=1
%NoSave
%Mem=1900MB
#P OB98/GEN NMR

erre ene a

0 1
  C       95.422    -794.355      36.283
  O       94.887    -795.606      36.685
  H       95.044    -793.555      36.930
  H       96.513    -794.394      36.371
  H       95.159    -794.150      35.240
  P       93.286    -795.707      36.724
  C       93.374    -795.944      39.309
  O       92.840    -795.237      38.196
  C       93.712    -794.974      40.435
  O       94.769    -794.078      40.014
  C       92.566    -794.068      40.865
  O       91.645    -794.741      41.719
  C       93.327    -792.979      41.610
  O       93.642    -793.439      42.940
  C       94.613    -792.848      40.784
  N       94.836    -787.736      40.342
  C       94.868    -788.550      41.432
  N       94.795    -789.896      41.476
  C       94.689    -790.414      40.226
  C       94.641    -789.700      39.032
  C       94.715    -788.299      39.124
  N       94.658    -787.479      38.013
  N       94.541    -790.564      37.965
  C       94.532    -791.767      38.491
  N       94.607    -791.726      39.863
  O       93.020    -797.293      36.748
  O       92.572    -795.048      35.592
  H       94.302    -792.811      43.307
  H       92.207    -797.480      36.234
  H       94.977    -788.052      42.393
  H       94.470    -792.690      37.934
  H       95.492    -792.759      41.421
  H       92.763    -792.054      41.709
  H       92.061    -793.625      39.998
  H       94.088    -795.555      41.287
  H       94.284    -796.469      39.004
  H       94.913    -786.511      38.121
  H       94.567    -787.914      37.097
  H       92.639    -796.675      39.650
  P       90.155    -794.979      41.161
  C       89.231    -793.329      42.939
  O       89.335    -793.661      41.549
  O       89.577    -796.086      42.155
  O       90.073    -795.412      39.735
  H       88.866    -796.593      41.710
  H       88.660    -792.431      43.049
  H       90.210    -793.181      43.345
  H       88.745    -794.127      43.461

 6  7  8  9  10  11  12  13  14  15  25  28  32  33  34  35 0
 6-311+G(2d,p)
 ****
 36  39  40 0
 6-311+G(2d,p)
 ****
 1  2  3  4  5  16  17  18  19  20  21  22  23  24 0
 3-21G
 ****
 26  27  29  30  31  37  38  41  42  43  44  45  46  47  48 0
 3-21G
 ****


