%nproc=1
%NoSave
%Mem=1900MB
#P OB98/GEN NMR

erre ene a

0 1
  C      758.205     258.766     510.554
  O      759.042     257.794     511.139
  P      760.052     256.927     510.271
  C      760.977     254.524     510.536
  O      759.863     255.392     510.719
  C      760.501     253.059     510.444
  O      760.089     252.623     511.777
  C      759.294     252.880     509.488
  O      759.505     251.861     508.501
  C      758.150     252.645     510.436
  O      757.036     251.987     509.862
  C      758.841     251.922     511.604
  N      758.039     251.907     512.831
  C      757.235     250.784     513.051
  O      757.194     249.809     512.302
  N      756.440     250.831     514.160
  C      756.278     251.903     514.992
  O      755.479     251.904     515.912
  C      757.102     253.074     514.686
  C      757.965     253.017     513.640
  O      761.477     257.378     510.281
  O      759.372     256.935     508.812
  H      756.683     252.541     509.137
  H      758.479     256.566     508.780
  H      755.858     250.016     514.346
  H      756.991     253.951     515.309
  H      758.578     253.878     513.391
  H      759.089     250.885     511.348
  H      757.781     253.625     510.793
  H      759.124     253.789     508.914
  H      761.368     252.458     510.122
  H      761.661     254.632     511.388
  H      761.533     254.808     509.639
  P      759.250     252.062     506.925
  C      756.970     251.651     505.690
  O      757.683     252.350     506.692
  O      759.822     251.010     506.046
  O      759.908     253.490     506.609
  H      760.219     253.523     505.692
  H      756.135     252.286     505.339
  H      756.572     250.725     506.135
  H      757.632     251.396     504.852
  H      757.610     259.228     511.314
  H      757.565     258.299     509.835
  H      758.805     259.508     510.070

 3  4  5  6  7  8  9  10  11  12  13  23  28  29  30  31  32 0
 6-311+G(2d,p)
 ****
 33  34 0
 6-311+G(2d,p)
 ****
 1  2  14  15  16  17  18  19  20  21  22  24  25  26  27 0
 3-21G
 ****
 35  36  37  38  39  40  41  42  43  44  45 0
 3-21G
 ****


