%nproc=1
%NoSave
%Mem=1900MB
#P OB98/GEN NMR

erre ene a

0 1
  C       -0.597      10.676     -15.005
  O       -1.662      10.499     -15.919
  P       -1.385      10.562     -17.495
  C        0.294       9.319     -19.046
  O        0.005       9.810     -17.756
  C        1.808       9.248     -19.287
  O        2.304      10.604     -19.400
  C        2.606       8.605     -18.158
  O        3.887       8.226     -18.666
  C        2.763       9.758     -17.193
  O        3.838       9.556     -16.280
  C        2.919      10.972     -18.143
  N        2.274      12.178     -17.592
  C        2.940      12.830     -16.559
  O        4.052      12.488     -16.157
  N        2.249      13.837     -15.944
  C        0.968      14.205     -16.233
  O        0.266      14.879     -15.489
  C        0.414      13.648     -17.477
  C        1.072      12.654     -18.078
  O       -1.036      12.105     -17.731
  O       -2.518      10.112     -18.350
  H        3.980      10.412     -15.813
  H       -1.828      12.587     -18.033
  H        2.673      14.213     -15.104
  H       -0.538      14.025     -17.824
  H        0.661      12.187     -18.968
  H        3.975      11.206     -18.323
  H        1.844       9.859     -16.602
  H        2.113       7.746     -17.692
  H        2.001       8.737     -20.237
  H       -0.185       9.961     -19.791
  H       -0.135       8.319     -19.177
  P        4.636       6.993     -17.966
  C        3.971       4.627     -17.225
  O        3.516       5.877     -17.700
  O        5.498       7.330     -16.796
  O        5.486       6.358     -19.169
  H        6.199       5.799     -18.808
  H        3.185       4.173     -16.616
  H        4.873       4.733     -16.617
  H        4.182       3.974     -18.076
  H       -0.969      10.602     -14.005
  H       -0.158      11.641     -15.151
  H        0.142       9.919     -15.168

 3  4  5  6  7  8  9  10  11  12  13  23  28  29  30  31  32 0
 6-311+G(2d,p)
 ****
 33  34 0
 6-311+G(2d,p)
 ****
 1  2  14  15  16  17  18  19  20  21  22  24  25  26  27 0
 3-21G
 ****
 35  36  37  38  39  40  41  42  43  44  45 0
 3-21G
 ****


