%nproc=1
%NoSave
%Mem=1900MB
#P OB98/GEN NMR

erre ene a

0 1
  C      -20.553     105.669     229.850
  O      -21.330     106.843     229.984
  H      -21.138     104.820     230.212
  H      -19.642     105.748     230.447
  H      -20.301     105.504     228.800
  P      -20.633     108.226     229.562
  C      -19.699     108.359     231.984
  O      -19.426     108.464     230.593
  C      -19.211     109.614     232.699
  O      -17.798     109.804     232.449
  C      -19.883     110.897     232.229
  O      -21.176     111.061     232.785
  C      -18.891     111.938     232.722
  O      -19.117     112.269     234.101
  C      -17.535     111.219     232.540
  N      -16.803     111.715     231.378
  C      -16.092     112.896     231.574
  O      -16.070     113.502     232.646
  N      -15.432     113.386     230.477
  C      -15.447     112.841     229.226
  O      -14.896     113.370     228.270
  C      -16.203     111.586     229.085
  C      -16.844     111.091     230.146
  O      -21.720     109.322     229.985
  O      -20.257     108.329     228.122
  H      -22.198     109.638     229.196
  H      -18.406     112.892     234.352
  H      -14.922     114.246     230.595
  H      -16.230     111.123     228.103
  H      -17.426     110.178     230.061
  H      -16.904     111.367     233.426
  H      -18.970     112.867     232.156
  H      -19.915     110.929     231.133
  H      -19.353     109.477     233.780
  H      -19.175     107.487     232.395
  H      -20.777     108.221     232.128
  P      -22.349     111.625     231.846
  C      -22.379     113.971     233.031
  O      -22.200     113.222     231.843
  O      -23.632     111.353     232.759
  O      -22.391     110.996     230.495
  H      -23.458     111.474     233.708
  H      -22.239     115.011     232.822
  H      -21.665     113.655     233.763
  H      -23.368     113.813     233.406

 6  7  8  9  10  11  12  13  14  15  16  27  31  32  33  34  35 0
 6-311+G(2d,p)
 ****
 36  37 0
 6-311+G(2d,p)
 ****
 1  2  3  4  5  17  18  19  20  21  22  23  24  25 0
 3-21G
 ****
 26  28  29  30  38  39  40  41  42  43  44  45 0
 3-21G
 ****


