%nproc=1
%NoSave
%Mem=1900MB
#P OB98/GEN NMR

erre ene a

0 1
  C     -398.527     393.355     162.491
  O     -399.119     393.815     161.300
  P     -398.276     394.381     160.067
  C     -398.239     396.947     160.496
  O     -397.518     395.718     160.539
  C     -397.399     398.119     159.959
  O     -396.325     398.396     160.877
  C     -396.742     397.729     158.632
  O     -397.469     397.845     157.424
  C     -395.388     398.435     158.638
  O     -395.399     399.653     157.896
  C     -395.137     398.700     160.124
  N     -390.404     398.959     161.920
  C     -391.311     399.977     161.720
  N     -390.825     401.230     161.841
  N     -392.571     399.776     161.403
  C     -392.878     398.471     161.236
  C     -392.070     397.373     161.414
  C     -390.695     397.602     161.795
  O     -389.834     396.733     161.901
  N     -392.703     396.208     161.075
  C     -393.884     396.596     160.645
  N     -394.023     397.962     160.687
  O     -398.947     394.380     158.727
  O     -397.063     393.314     159.995
  H     -394.564     400.126     158.080
  H     -396.822     393.211     159.054
  H     -389.423     399.174     162.072
  H     -394.665     395.940     160.267
  H     -394.934     399.769     160.288
  H     -394.625     397.797     158.179
  H     -389.841     401.423     161.927
  H     -396.507     396.659     158.694
  H     -391.418     402.001     161.533
  H     -397.985     399.034     159.911
  H     -398.592     397.152     161.512
  H     -399.123     396.825     159.867
  P     -397.263     396.966     156.104
  C     -395.283     398.212     155.053
  O     -395.710     397.023     155.693
  O     -397.961     397.820     154.941
  O     -397.847     395.593     156.165
  H     -398.204     397.229     154.196
  H     -394.327     398.024     154.558
  H     -395.145     398.997     155.808
  H     -396.014     398.538     154.315
  H     -399.290     393.027     163.165
  H     -397.970     394.149     162.942
  H     -397.871     392.539     162.271

 3  4  5  6  7  8  9  10  11  12  23  26  30  31 0
 6-311+G(2d,p)
 ****
 33  35  36  37  38 0
 6-311+G(2d,p)
 ****
 1  2  13  14  15  16  17  18  19  20  21  22  24  25 0
 3-21G
 ****
 27  28  29  32  34  39  40  41  42  43  44  45  46  47  48  49 0
 3-21G
 ****


