%nproc=1
%NoSave
%Mem=1900MB
#P OB98/GEN NMR

erre ene a

0 1
  C     -196.565      72.381    -162.920
  O     -196.536      73.791    -162.962
  H     -195.652      72.025    -162.435
  H     -196.596      71.980    -163.936
  H     -197.425      72.020    -162.351
  P     -197.869      74.585    -163.364
  C     -197.833      73.873    -165.844
  O     -198.508      73.782    -164.597
  C     -198.642      73.168    -166.933
  O     -197.906      73.276    -168.191
  C     -198.873      71.668    -166.653
  O     -200.156      71.299    -167.176
  C     -197.773      71.035    -167.480
  O     -198.033      69.680    -167.752
  C     -197.770      71.940    -168.709
  N     -196.553      71.770    -169.497
  C     -196.572      70.785    -170.478
  O     -197.542      70.062    -170.700
  N     -195.402      70.598    -171.162
  C     -194.214      71.206    -170.891
  O     -193.176      70.943    -171.484
  C     -194.238      72.202    -169.806
  C     -195.390      72.439    -169.172
  O     -197.714      76.053    -163.588
  O     -198.897      74.255    -162.181
  H     -197.290      69.291    -168.250
  H     -199.603      74.929    -162.146
  H     -195.404      69.895    -171.885
  H     -193.307      72.693    -169.554
  H     -195.442      73.151    -168.358
  H     -198.641      71.740    -169.347
  H     -196.819      71.093    -166.946
  H     -198.815      71.415    -165.592
  H     -199.593      73.696    -167.072
  H     -196.852      73.394    -165.738
  H     -197.688      74.927    -166.104
  P     -201.364      70.853    -166.217
  C     -200.335      68.731    -165.197
  O     -200.801      70.053    -164.940
  O     -202.481      70.156    -166.923
  O     -201.893      72.228    -165.585
  H     -202.868      72.243    -165.626
  H     -199.985      68.293    -164.286
  H     -199.535      68.767    -165.906
  H     -201.136      68.141    -165.592

 6  7  8  9  10  11  12  13  14  15  16  26  31  32  33  34  35 0
 6-311+G(2d,p)
 ****
 36  37 0
 6-311+G(2d,p)
 ****
 1  2  3  4  5  17  18  19  20  21  22  23  24  25 0
 3-21G
 ****
 27  28  29  30  38  39  40  41  42  43  44  45 0
 3-21G
 ****


