%nproc=1
%NoSave
%Mem=1900MB
#P OB98/GEN NMR

erre ene a

0 1
  C      452.776      38.255     529.298
  O      453.997      38.902     529.667
  P      454.801      39.677     528.514
  C      456.517      37.739     528.103
  O      455.453      38.529     527.600
  C      456.787      36.559     527.168
  O      455.582      35.769     526.989
  C      457.218      36.967     525.767
  O      458.563      37.420     525.746
  C      456.967      35.674     525.003
  O      458.053      34.754     525.204
  C      455.688      35.137     525.690
  N      454.487      35.349     524.896
  C      454.430      34.657     523.690
  O      455.335      33.929     523.289
  N      453.297      34.846     522.947
  C      452.252      35.663     523.271
  O      451.257      35.787     522.564
  C      452.392      36.409     524.533
  C      453.484      36.220     525.275
  O      456.031      40.274     529.341
  O      453.966      40.687     527.800
  H      456.332      39.684     530.053
  H      457.798      33.919     524.761
  H      453.229      34.343     522.075
  H      451.593      37.086     524.809
  H      453.609      36.761     526.211
  H      455.788      34.063     525.884
  H      456.872      35.833     523.924
  H      456.555      37.756     525.387
  H      457.552      35.928     527.628
  H      456.263      37.356     529.095
  H      457.407      38.367     528.210
  P      458.800      38.970     525.382
  C      459.713      38.230     523.049
  O      458.844      39.062     523.785
  O      460.326      39.155     525.830
  O      457.841      39.897     526.056
  H      460.899      38.424     525.542
  H      459.366      38.180     522.017
  H      459.746      37.216     523.459
  H      460.720      38.657     523.061
  H      452.349      37.782     530.158
  H      452.975      37.519     528.548
  H      452.090      38.980     528.913

 3  4  5  6  7  8  9  10  11  12  13  24  28  29  30  31  32 0
 6-311+G(2d,p)
 ****
 33  34 0
 6-311+G(2d,p)
 ****
 1  2  14  15  16  17  18  19  20  21  22  23  25  26  27 0
 3-21G
 ****
 35  36  37  38  39  40  41  42  43  44  45 0
 3-21G
 ****


