%nproc=1
%NoSave
%Mem=1900MB
#P OB98/GEN NMR

erre ene a

0 1
  C     -211.094     -46.785     166.566
  O     -211.137     -45.901     165.450
  P     -212.487     -45.806     164.589
  C     -211.576     -46.606     162.313
  O     -212.417     -46.909     163.422
  C     -211.805     -47.604     161.174
  O     -211.526     -48.954     161.582
  C     -213.240     -47.622     160.674
  O     -213.525     -46.473     159.890
  C     -213.272     -48.945     159.920
  O     -212.733     -48.798     158.598
  C     -212.341     -49.833     160.779
  N     -213.059     -50.788     161.608
  C     -213.555     -51.920     160.950
  O     -213.402     -52.050     159.732
  N     -214.220     -52.871     161.686
  C     -214.385     -52.705     162.966
  N     -215.042     -53.680     163.645
  C     -213.891     -51.515     163.693
  C     -213.256     -50.605     162.961
  O     -212.880     -44.437     164.150
  O     -213.583     -46.427     165.591
  H     -213.244     -48.077     158.178
  H     -214.450     -46.012     165.403
  H     -214.048     -51.423     164.761
  H     -212.861     -49.701     163.414
  H     -211.652     -50.394     160.138
  H     -214.298     -49.326     159.809
  H     -213.927     -47.667     161.526
  H     -211.128     -47.334     160.346
  H     -215.387     -54.474     163.122
  H     -210.529     -46.635     162.632
  H     -215.181     -53.659     164.645
  H     -211.782     -45.578     161.986
  P     -214.656     -45.475     160.427
  C     -216.488     -47.241     159.892
  O     -215.925     -46.353     160.847
  O     -215.149     -44.742     159.082
  O     -214.197     -44.482     161.442
  H     -215.401     -43.824     159.289
  H     -217.113     -47.967     160.408
  H     -215.717     -47.770     159.331
  H     -217.118     -46.666     159.200
  H     -210.131     -46.729     167.028
  H     -211.274     -47.786     166.235
  H     -211.846     -46.503     167.273

 3  4  5  6  7  8  9  10  11  12  13  23  27  28  29  30  32 0
 6-311+G(2d,p)
 ****
 34  35 0
 6-311+G(2d,p)
 ****
 1  2  14  15  16  17  18  19  20  21  22  24  25  26 0
 3-21G
 ****
 31  33  36  37  38  39  40  41  42  43  44  45  46 0
 3-21G
 ****


