%nproc=1
%NoSave
%Mem=1900MB
#P OB98/GEN NMR

erre ene a

0 1
  C      329.484    -897.165     837.111
  O      329.030    -897.219     835.773
  H      330.078    -896.258     837.247
  H      330.112    -898.030     837.328
  H      328.634    -897.132     837.793
  P      328.220    -898.532     835.326
  C      326.711    -899.040     833.268
  O      327.165    -898.073     834.213
  C      325.398    -898.564     832.645
  O      324.359    -898.551     833.643
  C      325.457    -897.147     832.096
  O      326.081    -897.082     830.830
  C      323.971    -896.821     832.021
  O      323.373    -897.306     830.812
  C      323.405    -897.550     833.253
  N      323.100    -896.624     834.337
  C      321.793    -896.110     834.359
  O      320.951    -896.408     833.515
  N      321.525    -895.221     835.346
  C      322.412    -894.749     836.278
  O      322.107    -893.891     837.109
  C      323.768    -895.306     836.211
  C      324.050    -896.201     835.261
  O      327.316    -898.845     836.603
  O      329.069    -899.691     834.940
  H      327.672    -899.623     837.086
  H      323.810    -896.815     830.078
  H      320.585    -894.828     835.376
  H      324.500    -894.960     836.926
  H      325.051    -896.634     835.172
  H      322.469    -898.076     832.983
  H      323.815    -895.740     832.058
  H      325.934    -896.482     832.823
  H      325.112    -899.276     831.857
  H      326.536    -900.000     833.778
  H      327.485    -899.185     832.510
  P      326.794    -895.689     830.427
  C      328.620    -895.044     828.648
  O      327.885    -896.058     829.307
  O      327.648    -895.401     831.737
  O      325.817    -894.613     830.056
  H      327.884    -896.228     832.211
  H      329.290    -895.490     827.943
  H      329.180    -894.484     829.368
  H      327.946    -894.391     828.135

 6  7  8  9  10  11  12  13  14  15  16  27  31  32  33  34  35 0
 6-311+G(2d,p)
 ****
 36  37 0
 6-311+G(2d,p)
 ****
 1  2  3  4  5  17  18  19  20  21  22  23  24  25 0
 3-21G
 ****
 26  28  29  30  38  39  40  41  42  43  44  45 0
 3-21G
 ****


