%nproc=1
%NoSave
%Mem=1900MB
#P OB98/GEN NMR

erre ene a

0 1
  C      448.868    -575.761    -669.103
  O      450.198    -575.775    -668.618
  P      450.827    -577.190    -668.199
  C      452.896    -576.769    -669.724
  O      452.417    -577.120    -668.422
  C      454.419    -576.870    -669.788
  O      455.008    -575.846    -668.909
  C      454.976    -578.239    -669.333
  O      456.157    -578.529    -670.108
  C      455.411    -577.985    -667.911
  O      456.415    -578.922    -667.492
  C      455.908    -576.532    -668.000
  N      457.762    -576.625    -663.302
  C      458.188    -577.306    -664.434
  N      459.191    -578.196    -664.230
  N      457.688    -577.117    -665.604
  C      456.691    -576.203    -665.643
  C      456.198    -575.447    -664.599
  C      456.758    -575.655    -663.288
  O      456.411    -575.091    -662.249
  N      455.206    -574.585    -665.020
  C      455.048    -574.863    -666.303
  N      455.933    -575.851    -666.709
  O      450.337    -578.179    -669.375
  O      450.391    -577.677    -666.853
  H      456.480    -578.848    -666.526
  H      449.606    -578.747    -669.034
  H      458.183    -576.793    -662.414
  H      454.351    -574.382    -666.975
  H      456.910    -576.482    -668.408
  H      454.564    -578.077    -667.258
  H      459.580    -578.427    -663.328
  H      454.263    -579.062    -669.423
  H      459.482    -578.752    -665.040
  H      454.733    -576.621    -670.803
  H      452.586    -575.765    -669.955
  H      452.448    -577.453    -670.468
  P      456.219    -580.015    -670.772
  C      457.582    -578.955    -672.715
  O      457.464    -580.000    -671.762
  O      454.938    -580.021    -671.732
  O      456.180    -581.114    -669.760
  H      454.645    -580.932    -671.871
  H      458.471    -578.373    -672.518
  H      456.696    -578.305    -672.740
  H      457.655    -579.425    -673.721
  H      448.586    -574.757    -669.341
  H      448.211    -576.148    -668.353
  H      448.803    -576.368    -669.982

 3  4  5  6  7  8  9  10  11  12  23  26  30  31 0
 6-311+G(2d,p)
 ****
 33  35  36  37  38 0
 6-311+G(2d,p)
 ****
 1  2  13  14  15  16  17  18  19  20  21  22  24  25 0
 3-21G
 ****
 27  28  29  32  34  39  40  41  42  43  44  45  46  47  48  49 0
 3-21G
 ****


