%nproc=1
%NoSave
%Mem=1900MB
#P OB98/GEN NMR

erre ene a

0 1
  C      -36.379     -28.668     110.298
  O      -37.611     -28.264     109.726
  P      -38.768     -29.334     109.412
  C      -39.696     -29.102     111.813
  O      -39.139     -29.971     110.835
  C      -40.780     -29.833     112.599
  O      -41.979     -29.920     111.804
  C      -40.429     -31.267     112.976
  O      -39.522     -31.300     114.067
  C      -41.813     -31.839     113.255
  O      -42.259     -31.453     114.565
  C      -42.670     -31.134     112.183
  N      -42.929     -31.976     111.020
  C      -44.258     -32.063     110.597
  O      -45.151     -31.448     111.178
  N      -44.547     -32.824     109.492
  C      -43.600     -33.462     108.877
  N      -43.934     -34.145     107.749
  C      -42.195     -33.442     109.324
  C      -41.933     -32.684     110.386
  O      -38.431     -30.328     108.354
  O      -40.054     -28.450     109.082
  H      -41.870     -30.576     114.747
  H      -40.130     -28.203     108.128
  H      -41.442     -34.001     108.787
  H      -40.923     -32.600     110.764
  H      -43.628     -30.818     112.611
  H      -41.855     -32.932     113.196
  H      -39.981     -31.788     112.122
  H      -41.007     -29.246     113.499
  H      -44.866     -33.988     107.384
  H      -40.142     -28.242     111.302
  H      -43.234     -34.417     107.070
  H      -38.901     -28.746     112.474
  P      -38.636     -32.623     114.253
  C      -36.472     -31.347     113.605
  O      -37.347     -32.423     113.315
  O      -39.497     -33.749     113.515
  O      -38.344     -32.974     115.674
  H      -39.981     -34.288     114.167
  H      -35.547     -31.492     113.042
  H      -36.234     -31.317     114.671
  H      -36.928     -30.404     113.296
  H      -35.748     -27.813     110.427
  H      -35.898     -29.371     109.650
  H      -36.560     -29.125     111.249

 3  4  5  6  7  8  9  10  11  12  13  23  27  28  29  30  32 0
 6-311+G(2d,p)
 ****
 34  35 0
 6-311+G(2d,p)
 ****
 1  2  14  15  16  17  18  19  20  21  22  24  25  26 0
 3-21G
 ****
 31  33  36  37  38  39  40  41  42  43  44  45  46 0
 3-21G
 ****


