%nproc=1
%NoSave
%Mem=1900MB
#P OB98/GEN NMR

erre ene a

0 1
  C      -47.775     880.532    -331.812
  O      -48.529     880.480    -333.004
  H      -46.955     879.814    -331.890
  H      -48.395     880.254    -330.957
  H      -47.358     881.529    -331.664
  P      -49.832     881.405    -333.152
  C      -48.507     882.544    -335.034
  O      -49.318     882.748    -333.880
  C      -49.056     883.327    -336.228
  O      -50.340     882.775    -336.626
  C      -49.266     884.824    -335.945
  O      -48.722     885.601    -337.016
  C      -50.780     884.972    -335.926
  O      -51.213     886.297    -336.229
  C      -51.190     883.893    -336.930
  N      -52.604     883.564    -336.838
  C      -53.478     884.364    -337.578
  O      -53.036     885.286    -338.270
  N      -54.825     884.142    -337.480
  C      -55.271     883.226    -336.671
  N      -56.620     883.079    -336.599
  C      -54.387     882.378    -335.848
  C      -53.078     882.595    -335.986
  O      -50.586     881.625    -331.884
  O      -50.708     880.701    -334.290
  H      -52.178     886.273    -336.420
  H      -51.644     880.988    -334.195
  H      -54.801     881.633    -335.189
  H      -52.350     882.020    -335.425
  H      -50.976     884.216    -337.962
  H      -51.159     884.715    -334.931
  H      -48.818     885.147    -335.009
  H      -48.380     883.175    -337.081
  H      -57.188     883.688    -337.176
  H      -48.480     881.476    -335.261
  H      -57.079     882.418    -335.991
  H      -47.493     882.896    -334.814
  P      -47.822     886.861    -336.584
  C      -45.844     886.651    -338.250
  O      -46.290     886.512    -336.913
  O      -47.898     886.839    -334.984
  O      -48.314     888.162    -337.143
  H      -48.429     887.600    -334.675
  H      -44.810     886.384    -338.311
  H      -45.969     887.666    -338.564
  H      -46.416     886.008    -338.886

 6  7  8  9  10  11  12  13  14  15  16  26  30  31  32  33  35 0
 6-311+G(2d,p)
 ****
 37  38 0
 6-311+G(2d,p)
 ****
 1  2  3  4  5  17  18  19  20  21  22  23  24  25 0
 3-21G
 ****
 27  28  29  34  36  39  40  41  42  43  44  45  46 0
 3-21G
 ****


