%nproc=1
%NoSave
%Mem=1900MB
#P OB98/GEN NMR

erre ene a

0 1
  C     -260.083     255.989    -147.858
  O     -260.999     255.424    -148.774
  H     -259.962     255.306    -147.013
  H     -260.468     256.946    -147.483
  H     -259.110     256.141    -148.334
  P     -261.287     256.259    -150.115
  C     -263.042     257.765    -148.919
  O     -261.817     257.702    -149.644
  C     -263.677     259.143    -149.105
  O     -262.869     260.139    -148.443
  C     -263.780     259.595    -150.561
  O     -264.875     258.998    -151.228
  C     -263.915     261.105    -150.393
  O     -265.271     261.483    -150.118
  C     -263.041     261.383    -149.159
  N     -259.944     265.398    -148.599
  C     -261.151     265.104    -148.062
  N     -261.904     263.998    -148.254
  C     -261.285     263.141    -149.083
  C     -260.061     263.309    -149.713
  C     -259.370     264.496    -149.442
  N     -258.166     264.812    -150.014
  N     -259.788     262.226    -150.526
  C     -260.821     261.421    -150.393
  N     -261.747     261.928    -149.524
  O     -262.598     255.546    -150.705
  O     -260.168     256.281    -151.104
  H     -265.823     261.062    -150.807
  H     -262.335     254.872    -151.362
  H     -261.567     265.857    -147.396
  H     -260.945     260.465    -150.898
  H     -263.511     262.091    -148.468
  H     -263.603     261.637    -151.292
  H     -262.838     259.382    -151.091
  H     -264.671     259.139    -148.631
  H     -262.847     257.599    -147.856
  H     -263.714     256.976    -149.286
  H     -257.733     265.700    -149.790
  H     -257.778     264.204    -150.729
  P     -264.788     258.783    -152.810
  C     -266.331     260.842    -153.210
  O     -265.104     260.199    -153.507
  O     -266.086     257.897    -153.139
  O     -263.530     258.130    -153.282
  H     -265.832     256.959    -153.242
  H     -266.389     261.765    -153.748
  H     -266.386     261.037    -152.159
  H     -267.144     260.209    -153.498

 6  7  8  9  10  11  12  13  14  15  25  28  32  33  34  35 0
 6-311+G(2d,p)
 ****
 36  37  40 0
 6-311+G(2d,p)
 ****
 1  2  3  4  5  16  17  18  19  20  21  22  23  24 0
 3-21G
 ****
 26  27  29  30  31  38  39 41  42  43  44  45  46  47  48 0
 3-21G
 ****


