%nproc=1
%NoSave
%Mem=1900MB
#P OB98/GEN NMR

erre ene a

0 1
  C      143.021      26.607    -136.153
  O      143.939      27.003    -135.151
  H      143.549      26.547    -137.108
  H      142.218      27.342    -136.237
  H      142.606      25.624    -135.917
  P      143.359      27.134    -133.663
  C      144.381      29.521    -133.418
  O      144.298      28.196    -132.912
  C      145.504      29.628    -134.456
  O      144.997      29.167    -135.743
  C      146.021      31.061    -134.669
  O      147.400      30.977    -135.073
  C      145.174      31.523    -135.843
  O      145.702      32.695    -136.419
  C      145.191      30.249    -136.683
  N      143.849      28.178    -141.164
  C      144.904      27.954    -140.349
  N      145.187      28.535    -139.166
  C      144.233      29.421    -138.830
  C      143.099      29.749    -139.553
  C      142.920      29.086    -140.781
  N      141.852      29.319    -141.616
  N      142.356      30.708    -138.886
  C      143.031      30.950    -137.780
  N      144.175      30.202    -137.708
  O      143.750      25.735    -132.991
  O      141.895      27.411    -133.567
  H      146.535      32.502    -136.899
  H      143.000      25.116    -133.054
  H      145.617      27.209    -140.696
  H      142.747      31.658    -137.010
  H      146.161      30.095    -137.170
  H      144.156      31.763    -135.517
  H      145.940      31.689    -133.778
  H      146.317      28.948    -134.175
  H      144.582      30.200    -132.581
  H      143.428      29.794    -133.882
  H      141.806      28.811    -142.485
  H      141.161      30.004    -141.350
  P      148.531      31.625    -134.132
  C      149.681      33.267    -135.817
  O      149.768      32.073    -135.050
  O      149.124      30.334    -133.385
  O      148.051      32.632    -133.139
  H      149.476      30.592    -132.513
  H      150.590      33.407    -136.363
  H      149.526      34.100    -135.164
  H      148.862      33.193    -136.501

 6  7  8  9  10  11  12  13  14  15  25  28  32  33  34  35 0
 6-311+G(2d,p)
 ****
 36  37  40 0
 6-311+G(2d,p)
 ****
 1  2  3  4  5  16  17  18  19  20  21  22  23  24 0
 3-21G
 ****
 26  27  29  30  31  38  39 41  42  43  44  45  46  47  48 0
 3-21G
 ****


