%nproc=1
%NoSave
%Mem=1900MB
#P OB98/GEN NMR

erre ene a

0 1
  C     -234.490     169.159    -387.064
  O     -233.302     168.389    -387.109
  P     -233.187     167.022    -386.270
  C     -231.292     167.135    -384.531
  O     -232.673     167.389    -384.797
  C     -230.442     168.333    -384.958
  O     -231.146     169.576    -384.725
  C     -229.136     168.471    -384.189
  O     -228.182     167.494    -384.585
  C     -228.747     169.907    -384.517
  O     -228.134     169.994    -385.816
  C     -230.136     170.602    -384.533
  N     -230.384     171.375    -383.326
  C     -229.372     172.264    -382.960
  O     -228.307     172.306    -383.581
  N     -229.584     173.086    -381.871
  C     -230.656     172.936    -381.155
  N     -230.842     173.809    -380.131
  C     -231.668     171.895    -381.424
  C     -231.486     171.173    -382.528
  O     -232.436     165.927    -386.948
  O     -234.712     166.594    -386.019
  H     -234.824     165.665    -386.275
  H     -227.252     169.584    -385.732
  H     -232.512     171.768    -380.761
  H     -232.190     170.404    -382.819
  H     -230.219     171.260    -385.407
  H     -228.048     170.329    -383.794
  H     -229.330     168.377    -383.114
  H     -230.243     168.245    -386.039
  H     -230.137     174.524    -379.987
  H     -230.990     166.246    -385.093
  H     -231.763     173.997    -379.733
  H     -231.161     166.930    -383.466
  P     -227.019     167.157    -383.530
  C     -224.657     167.952    -384.275
  O     -225.903     168.296    -383.682
  O     -226.317     165.856    -384.165
  O     -227.487     166.896    -382.146
  H     -226.034     165.256    -383.447
  H     -224.168     168.869    -384.611
  H     -224.801     167.290    -385.133
  H     -224.025     167.460    -383.538
  H     -234.377     170.026    -387.681
  H     -234.681     169.462    -386.056
  H     -235.310     168.571    -387.421

 3  4  5  6  7  8  9  10  11  12  13  24  27  28  29  30  32 0
 6-311+G(2d,p)
 ****
 34  35 0
 6-311+G(2d,p)
 ****
 1  2  14  15  16  17  18  19  20  21  22  23  25  26 0
 3-21G
 ****
 31  33  36  37  38  39  40  41  42  43  44  45  46 0
 3-21G
 ****


