%nproc=1
%NoSave
%Mem=1900MB
#P OB98/GEN NMR

erre ene a

0 1
  C      606.984    -501.492      60.011
  O      608.090    -502.146      60.602
  H      607.350    -500.796      59.255
  H      606.426    -500.936      60.765
  H      606.331    -502.225      59.528
  P      607.778    -503.146      61.815
  C      605.929    -503.243      63.643
  O      606.657    -502.440      62.721
  C      605.652    -502.444      64.907
  O      604.901    -501.248      64.579
  C      604.802    -503.184      65.936
  O      605.548    -504.115      66.696
  C      604.299    -502.024      66.784
  O      605.251    -501.651      67.789
  C      604.125    -500.899      65.743
  N      602.719    -500.685      65.416
  C      601.981    -499.960      66.348
  O      602.467    -499.510      67.385
  N      600.653    -499.787      66.065
  C      599.991    -500.313      64.990
  O      598.786    -500.168      64.824
  C      600.811    -501.087      64.046
  C      602.114    -501.241      64.296
  O      609.108    -503.058      62.708
  O      607.469    -504.546      61.413
  H      609.626    -503.873      62.604
  H      605.326    -502.418      68.391
  H      600.108    -499.259      66.723
  H      600.319    -501.516      63.187
  H      602.743    -501.814      63.627
  H      604.532    -499.958      66.121
  H      603.376    -502.279      67.291
  H      603.943    -503.661      65.447
  H      606.612    -502.139      65.347
  H      606.516    -504.131      63.904
  H      604.996    -503.570      63.165
  P      604.974    -505.610      66.819
  C      602.680    -506.579      67.670
  O      603.451    -505.450      67.302
  O      605.762    -506.121      68.114
  O      605.184    -506.422      65.588
  H      606.003    -505.383      68.710
  H      601.700    -506.263      67.959
  H      603.150    -507.080      68.491
  H      602.608    -507.248      66.838

 6  7  8  9  10  11  12  13  14  15  16  27  31  32  33  34  35 0
 6-311+G(2d,p)
 ****
 36  37 0
 6-311+G(2d,p)
 ****
 1  2  3  4  5  17  18  19  20  21  22  23  24  25 0
 3-21G
 ****
 26  28  29  30  38  39  40  41  42  43  44  45 0
 3-21G
 ****


