%nproc=1
%NoSave
%Mem=1900MB
#P OB98/GEN NMR

erre ene a

0 1
  C     -369.121    -298.874     226.337
  O     -367.962    -298.339     225.725
  H     -369.632    -299.523     225.618
  H     -369.810    -298.077     226.631
  H     -368.846    -299.464     227.214
  P     -367.124    -297.231     226.521
  C     -368.548    -295.500     225.223
  O     -368.023    -295.903     226.483
  C     -370.046    -295.240     225.336
  O     -370.685    -296.302     226.078
  C     -370.382    -293.954     226.084
  O     -370.153    -292.826     225.269
  C     -371.825    -294.211     226.468
  O     -372.708    -293.954     225.368
  C     -371.789    -295.724     226.805
  N     -371.665    -295.977     228.236
  C     -372.778    -295.646     229.021
  O     -373.789    -295.173     228.495
  N     -372.698    -295.836     230.378
  C     -371.622    -296.324     230.907
  N     -371.612    -296.490     232.253
  C     -370.437    -296.706     230.117
  C     -370.522    -296.500     228.805
  O     -365.705    -297.026     226.100
  O     -367.236    -297.699     228.049
  H     -373.604    -294.177     225.689
  H     -366.506    -298.306     228.275
  H     -369.560    -297.114     230.597
  H     -369.692    -296.747     228.149
  H     -372.700    -296.216     226.445
  H     -372.135    -293.579     227.296
  H     -369.789    -293.894     227.005
  H     -370.476    -295.228     224.326
  H     -372.450    -296.210     232.760
  H     -368.358    -296.318     224.514
  H     -370.868    -296.943     232.765
  H     -368.037    -294.603     224.857
  P     -368.843    -291.919     225.475
  C     -370.366    -290.213     226.671
  O     -369.167    -290.984     226.742
  O     -368.366    -291.205     224.251
  O     -367.771    -292.957     226.061
  H     -367.436    -293.565     225.359
  H     -370.472    -289.636     227.566
  H     -371.206    -290.868     226.567
  H     -370.319    -289.557     225.827

 6  7  8  9  10  11  12  13  14  15  16  26  30  31  32  33  35 0
 6-311+G(2d,p)
 ****
 37  38 0
 6-311+G(2d,p)
 ****
 1  2  3  4  5  17  18  19  20  21  22  23  24  25 0
 3-21G
 ****
 27  28  29  34  36  39  40  41  42  43  44  45  46 0
 3-21G
 ****


