%nproc=1
%NoSave
%Mem=1900MB
#P OB98/GEN NMR

erre ene a

0 1
  C      162.977     316.416    -330.866
  O      164.335     315.979    -330.745
  P      165.309     316.804    -329.774
  C      165.871     315.186    -327.817
  O      166.288     315.762    -329.047
  C      166.652     313.894    -327.543
  O      166.147     312.789    -328.329
  C      168.137     313.991    -327.878
  O      168.877     314.593    -326.819
  C      168.509     312.523    -328.000
  O      168.700     311.961    -326.684
  C      167.265     311.925    -328.663
  N      168.838     308.999    -332.482
  C      168.857     308.775    -331.117
  N      169.364     307.589    -330.710
  N      168.420     309.631    -330.230
  C      167.926     310.764    -330.780
  C      167.847     311.108    -332.112
  C      168.350     310.155    -333.083
  O      168.367     310.307    -334.299
  N      167.286     312.343    -332.284
  C      167.002     312.745    -331.055
  N      167.388     311.823    -330.111
  O      164.329     317.253    -328.587
  O      165.971     317.975    -330.416
  H      168.954     311.026    -326.819
  H      164.652     318.080    -328.186
  H      169.191     308.306    -333.118
  H      166.522     313.679    -330.809
  H      167.031     310.922    -328.289
  H      169.447     312.377    -328.544
  H      169.674     306.862    -331.344
  H      168.298     314.503    -328.837
  H      169.359     307.390    -329.718
  H      166.540     313.646    -326.480
  H      164.803     314.970    -327.836
  H      166.017     315.913    -327.012
  P      170.398     315.006    -327.108
  C      170.207     317.540    -326.572
  O      170.698     316.271    -326.176
  O      170.328     315.614    -328.584
  O      171.372     313.878    -327.019
  H      171.166     315.444    -329.056
  H      170.364     318.238    -325.747
  H      169.138     317.487    -326.794
  H      170.751     317.890    -327.451
  H      162.454     315.773    -331.543
  H      162.957     317.419    -331.239
  H      162.505     316.383    -329.906

 3  4  5  6  7  8  9  10  11  12  23  26  30  31 0
 6-311+G(2d,p)
 ****
 33  35  36  37  38 0
 6-311+G(2d,p)
 ****
 1  2  13  14  15  16  17  18  19  20  21  22  24  25 0
 3-21G
 ****
 27  28  29  32  34  39  40  41  42  43  44  45  46  47  48  49 0
 3-21G
 ****


