%nproc=1
%NoSave
%Mem=1900MB
#P OB98/GEN NMR

erre ene a

0 1
  C      -12.878    -820.029    1221.240
  O      -11.932    -820.722    1220.447
  H      -13.398    -819.301    1220.605
  H      -12.369    -819.486    1222.044
  H      -13.613    -820.721    1221.661
  P      -11.175    -821.953    1221.146
  C      -11.810    -823.463    1219.086
  O      -11.764    -823.306    1220.504
  C      -11.326    -824.862    1218.705
  O       -9.893    -824.968    1218.799
  C      -11.836    -825.959    1219.619
  O      -13.213    -826.219    1219.451
  C      -10.937    -827.111    1219.198
  O      -11.388    -827.705    1217.978
  C       -9.584    -826.369    1218.981
  N       -8.654    -826.592    1220.076
  C       -7.804    -827.699    1219.939
  O       -7.869    -828.416    1218.944
  N       -6.934    -827.985    1220.960
  C       -6.887    -827.218    1222.004
  N       -6.005    -827.559    1222.988
  C       -7.741    -826.024    1222.177
  C       -8.590    -825.773    1221.180
  O      -11.799    -821.959    1222.620
  O       -9.684    -821.886    1221.107
  H      -12.266    -828.074    1218.153
  H      -12.768    -821.987    1222.628
  H       -7.648    -825.401    1223.057
  H       -9.261    -824.921    1221.230
  H       -9.103    -826.707    1218.056
  H      -10.900    -827.906    1219.945
  H      -11.620    -825.716    1220.672
  H      -11.616    -825.036    1217.656
  H       -5.448    -828.391    1222.851
  H      -11.214    -822.693    1218.587
  H       -5.895    -827.053    1223.854
  H      -12.855    -823.316    1218.773
  P      -14.028    -827.023    1220.576
  C      -14.739    -824.811    1221.678
  O      -14.098    -826.071    1221.861
  O      -13.552    -828.411    1220.845
  O      -15.536    -826.958    1220.038
  H      -15.905    -826.056    1219.925
  H      -14.725    -824.267    1222.599
  H      -15.752    -824.967    1221.372
  H      -14.221    -824.253    1220.926

 6  7  8  9  10  11  12  13  14  15  16  26  30  31  32  33  35 0
 6-311+G(2d,p)
 ****
 37  38 0
 6-311+G(2d,p)
 ****
 1  2  3  4  5  17  18  19  20  21  22  23  24  25 0
 3-21G
 ****
 27  28  29  34  36  39  40  41  42  43  44  45  46 0
 3-21G
 ****


