%nproc=1
%NoSave
%Mem=1900MB
#P OB98/GEN NMR

erre ene a

0 1
  C      226.429    -255.468      67.325
  O      227.741    -255.149      67.749
  H      226.490    -256.034      66.391
  H      225.863    -254.550      67.143
  H      225.922    -256.079      68.077
  P      227.884    -254.469      69.197
  C      228.571    -252.141      68.197
  O      227.654    -252.900      68.964
  C      228.032    -250.728      67.956
  O      226.767    -250.829      67.252
  C      227.791    -249.933      69.241
  O      228.097    -248.560      68.988
  C      226.293    -250.082      69.466
  O      225.769    -249.031      70.274
  C      225.774    -250.115      68.021
  N      224.459    -250.743      67.917
  C      223.591    -250.220      66.957
  O      223.935    -249.266      66.258
  N      222.331    -250.754      66.836
  C      221.952    -251.689      67.649
  N      220.684    -252.163      67.495
  C      222.819    -252.245      68.705
  C      224.050    -251.737      68.775
  O      229.460    -254.588      69.457
  O      227.036    -255.089      70.256
  H      226.142    -248.178      69.958
  H      229.999    -254.347      68.686
  H      222.455    -253.017      69.366
  H      224.759    -252.091      69.516
  H      225.704    -249.100      67.612
  H      226.082    -251.031      69.971
  H      228.385    -250.297      70.082
  H      228.726    -250.201      67.289
  H      220.116    -251.740      66.773
  H      228.756    -252.627      67.236
  H      220.265    -252.849      68.104
  H      229.517    -252.099      68.745
  P      229.617    -248.068      69.067
  C      229.599    -247.456      71.579
  O      230.166    -248.269      70.559
  O      229.895    -246.731      68.461
  O      230.401    -249.214      68.256
  H      231.083    -248.778      67.707
  H      230.054    -247.693      72.518
  H      228.546    -247.639      71.637
  H      229.770    -246.425      71.350

 6  7  8  9  10  11  12  13  14  15  16  26  30  31  32  33  35 0
 6-311+G(2d,p)
 ****
 37  38 0
 6-311+G(2d,p)
 ****
 1  2  3  4  5  17  18  19  20  21  22  23  24  25 0
 3-21G
 ****
 27  28  29  34  36  39  40  41  42  43  44  45  46 0
 3-21G
 ****


