%nproc=1
%NoSave
%Mem=1900MB
#P OB98/GEN NMR

erre ene a

0 1
  C     -152.539    -715.322    -899.490
  O     -152.672    -715.130    -898.100
  H     -152.638    -714.354    -900.000
  H     -153.318    -715.993    -899.860
  H     -151.551    -715.746    -899.720
  P     -152.504    -716.443    -897.170
  C     -150.413    -715.468    -895.930
  O     -150.963    -716.501    -896.770
  C     -148.995    -715.834    -895.480
  O     -149.078    -716.794    -894.390
  C     -148.167    -716.494    -896.600
  O     -146.755    -716.165    -896.370
  C     -148.370    -717.989    -896.310
  O     -147.420    -718.763    -896.950
  C     -148.314    -717.958    -894.770
  N     -147.489    -722.943    -893.990
  C     -146.714    -721.981    -894.570
  N     -147.009    -720.661    -894.690
  C     -148.220    -720.362    -894.180
  C     -149.123    -721.249    -893.600
  C     -148.722    -722.610    -893.510
  N     -149.476    -723.571    -892.940
  N     -150.256    -720.602    -893.190
  C     -150.060    -719.317    -893.570
  N     -148.842    -719.169    -894.170
  O     -152.672    -717.656    -898.230
  O     -153.500    -716.565    -896.040
  H     -147.347    -718.544    -897.900
  H     -153.609    -717.930    -898.250
  H     -145.758    -722.317    -894.900
  H     -150.762    -718.499    -893.410
  H     -147.261    -717.813    -894.380
  H     -149.380    -718.328    -896.650
  H     -148.468    -716.214    -897.620
  H     -148.488    -714.927    -895.120
  H     -151.088    -715.348    -895.030
  H     -150.410    -714.511    -896.500
  H     -149.123    -724.524    -892.910
  H     -150.437    -723.364    -892.570
  P     -146.182    -714.800    -896.970
  C     -144.902    -713.631    -894.990
  O     -146.091    -713.670    -895.780
  O     -147.462    -714.223    -897.800
  O     -144.973    -714.917    -897.840
  H     -147.165    -713.917    -898.690
  H     -144.984    -712.852    -894.261
  H     -144.060    -713.441    -895.622
  H     -144.772    -714.571    -894.495

 6  7  8  9  10  11  12  13  14  15  25  28  32  33  34  35 0
 6-311+G(2d,p)
 ****
 36  37  40 0
 6-311+G(2d,p)
 ****
 1  2  3  4  5  16  17  18  19  20  21  22  23  24 0
 3-21G
 ****
 26  27  29  30  31  38  39 41  42  43  44  45  46  47  48 0
 3-21G
 ****


