%nproc=1
%NoSave
%Mem=1900MB
#P OB98/GEN NMR

erre ene a

0 1
  C      -47.564     367.572     -18.232
  O      -47.842     366.207     -18.554
  P      -46.672     365.147     -18.269
  C      -45.922     363.699     -16.247
  O      -46.968     364.438     -16.863
  C      -46.356     363.226     -14.860
  O      -46.576     364.334     -13.960
  C      -47.670     362.451     -14.866
  O      -47.483     361.139     -15.373
  C      -48.051     362.515     -13.394
  O      -47.310     361.542     -12.640
  C      -47.589     363.931     -13.004
  N      -51.040     366.334     -10.092
  C      -50.100     365.408      -9.799
  N      -49.222     364.814     -10.633
  C      -49.368     365.277     -11.886
  C      -50.280     366.221     -12.334
  C      -51.150     366.761     -11.373
  N      -52.118     367.691     -11.675
  N      -50.131     366.436     -13.691
  C      -49.165     365.619     -14.058
  N      -48.666     364.905     -13.001
  O      -45.400     366.071     -17.972
  O      -46.421     364.211     -19.408
  H      -47.318     361.831     -11.704
  H      -44.771     366.023     -18.717
  H      -50.050     365.101      -8.758
  H      -48.799     365.506     -15.073
  H      -47.125     363.959     -12.010
  H      -49.113     362.326     -13.216
  H      -48.418     362.980     -15.474
  H      -45.556     362.598     -14.448
  H      -45.021     364.313     -16.162
  H      -52.754     367.967     -10.942
  H      -52.267     367.950     -12.639
  H      -45.664     362.850     -16.890
  P      -47.539     360.937     -16.965
  C      -45.736     361.298     -18.762
  O      -45.990     360.976     -17.404
  O      -48.079     362.358     -17.452
  O      -48.311     359.747     -17.422
  H      -47.619     363.092     -17.007
  H      -44.654     361.326     -18.915
  H      -46.156     362.279     -19.004
  H      -46.168     360.535     -19.412
  H      -48.417     368.175     -18.466
  H      -46.722     367.908     -18.801
  H      -47.345     367.655     -17.188

 3  4  5  6  7  8  9  10  11  12  22  25  29  30  31  32 0
 6-311+G(2d,p)
 ****
 33  36  37 0
 6-311+G(2d,p)
 ****
 1  2  13  14  15  16  17  18  19  20  21  23  24  26 0
 3-21G
 ****
 27  28  34  35  38  39  40  41  42  43  44  45  46  47  48 0
 3-21G
 ****


