%nproc=1
%NoSave
%Mem=1900MB
#P OB98/GEN NMR

erre ene a

0 1
  C     -177.354      34.872     418.129
  O     -178.432      33.979     418.336
  H     -177.650      35.865     418.467
  H     -177.102      34.919     417.066
  H     -176.479      34.546     418.704
  P     -178.190      32.449     417.919
  C     -180.092      32.473     416.138
  O     -178.700      32.307     416.404
  C     -180.272      33.351     414.902
  O     -179.524      34.579     415.062
  C     -179.760      32.723     413.614
  O     -180.656      31.765     413.086
  C     -179.595      33.952     412.735
  O     -180.838      34.331     412.122
  C     -179.149      35.022     413.737
  N     -175.280      37.639     415.804
  C     -176.586      37.551     416.139
  N     -177.552      36.816     415.540
  C     -177.045      36.105     414.518
  C     -175.737      36.095     414.065
  C     -174.824      36.907     414.763
  N     -173.499      37.019     414.409
  N     -175.608      35.268     412.968
  C     -176.814      34.786     412.758
  N     -177.717      35.261     413.676
  O     -179.296      31.665     418.770
  O     -176.814      31.931     418.181
  H     -180.625      35.053     411.500
  H     -178.880      31.274     419.561
  H     -176.901      38.150     416.986
  H     -177.091      34.102     411.966
  H     -179.645      35.988     413.563
  H     -178.875      33.765     411.938
  H     -178.772      32.275     413.782
  H     -181.340      33.608     414.813
  H     -180.566      32.951     417.001
  H     -180.542      31.489     415.983
  H     -172.918      37.674     414.907
  H     -173.174      36.567     413.564
  P     -180.182      30.232     413.069
  C     -180.291      30.382     410.463
  O     -179.576      29.938     411.612
  O     -181.556      29.406     413.076
  O     -179.293      29.843     414.198
  H     -181.448      28.587     413.600
  H     -179.753      30.107     409.580
  H     -180.398      31.446     410.499
  H     -181.259      29.926     410.447

 6  7  8  9  10  11  12  13  14  15  25  28  32  33  34  35 0
 6-311+G(2d,p)
 ****
 36  37  40 0
 6-311+G(2d,p)
 ****
 1  2  3  4  5  16  17  18  19  20  21  22  23  24 0
 3-21G
 ****
 26  27  29  30  31  38  39 41  42  43  44  45  46  47  48 0
 3-21G
 ****


