%nproc=1
%NoSave
%Mem=1900MB
#P OB98/GEN NMR

erre ene a

0 1
  C     -164.246     327.420     -21.687
  O     -163.303     326.378     -21.543
  H     -164.099     328.135     -20.873
  H     -165.259     327.019     -21.618
  H     -164.111     327.940     -22.639
  P     -163.202     325.260     -22.686
  C     -165.355     324.010     -22.006
  O     -164.698     324.772     -23.009
  C     -166.850     323.881     -22.315
  O     -167.009     323.049     -23.496
  C     -167.661     323.247     -21.184
  O     -168.937     323.879     -21.110
  C     -167.824     321.807     -21.631
  O     -168.987     321.196     -21.073
  C     -167.880     321.955     -23.150
  N     -169.096     317.135     -24.052
  C     -169.801     318.123     -23.395
  N     -171.001     317.776     -22.884
  N     -169.367     319.348     -23.246
  C     -168.160     319.560     -23.827
  C     -167.365     318.667     -24.504
  C     -167.849     317.310     -24.641
  O     -167.263     316.389     -25.198
  N     -166.202     319.259     -24.929
  C     -166.294     320.504     -24.507
  N     -167.459     320.737     -23.824
  O     -162.234     324.155     -22.403
  O     -162.793     326.074     -23.999
  H     -169.051     320.297     -21.462
  H     -161.856     325.932     -24.221
  H     -169.472     316.206     -24.126
  H     -165.551     321.276     -24.667
  H     -168.888     322.185     -23.512
  H     -166.948     321.222     -21.324
  H     -171.409     316.856     -22.980
  H     -167.157     323.325     -20.220
  H     -171.553     318.489     -22.422
  H     -167.238     324.874     -22.572
  H     -165.220     324.517     -21.046
  H     -164.895     323.017     -21.949
  P     -169.122     325.154     -20.153
  C     -169.898     324.020     -17.982
  O     -168.840     324.706     -18.637
  O     -170.380     325.931     -20.357
  O     -167.835     326.045     -20.498
  H     -168.080     326.990     -20.438
  H     -169.599     323.773     -16.985
  H     -170.128     323.123     -18.518
  H     -170.764     324.648     -17.950

 6  7  8  9  10  11  12  13  14  15  26  29  33  34 0
 6-311+G(2d,p)
 ****
 36  38  39  40  41 0
 6-311+G(2d,p)
 ****
 1  2  3  4  5  16  17  18  19  20  21  22  23  24  25 0
 3-21G
 ****
 27  28  30  31  32  35  37  42  43  44  45  46  47 0
 3-21G
 ****
 48  49 0
 3-21G
 ****


