%nproc=1
%NoSave
%Mem=1900MB
#P OB98/GEN NMR

erre ene a

0 1
  C      434.556    -158.224    -435.116
  O      433.700    -159.365    -434.977
  P      434.267    -160.794    -435.436
  C      434.687    -161.630    -433.010
  O      434.030    -161.847    -434.249
  C      435.188    -162.954    -432.428
  O      436.136    -162.752    -431.364
  C      434.083    -163.811    -431.819
  O      433.386    -164.551    -432.816
  C      434.889    -164.746    -430.934
  O      435.462    -165.804    -431.730
  C      435.992    -163.826    -430.407
  N      436.842    -164.208    -425.368
  C      437.251    -164.963    -426.411
  N      436.970    -164.809    -427.719
  C      436.186    -163.736    -427.916
  C      435.687    -162.875    -426.950
  C      436.046    -163.144    -425.618
  N      435.627    -162.372    -424.560
  N      434.908    -161.890    -427.525
  C      434.949    -162.145    -428.817
  N      435.700    -163.253    -429.102
  O      435.852    -160.573    -435.422
  O      433.790    -161.230    -436.781
  H      434.723    -166.263    -432.169
  H      436.265    -161.093    -436.133
  H      437.893    -165.804    -426.164
  H      434.456    -161.558    -429.579
  H      436.962    -164.332    -430.329
  H      434.276    -165.228    -430.164
  H      433.406    -163.202    -431.208
  H      435.682    -163.516    -433.234
  H      434.007    -161.142    -432.301
  H      435.947    -162.607    -423.635
  H      435.050    -161.559    -424.743
  H      435.521    -160.934    -433.161
  P      431.952    -165.150    -432.418
  C      430.309    -163.404    -433.416
  O      430.946    -164.659    -433.562
  O      431.544    -164.281    -431.136
  O      431.958    -166.613    -432.127
  H      430.984    -164.811    -430.539
  H      429.917    -163.097    -434.390
  H      431.016    -162.642    -433.070
  H      429.481    -163.488    -432.711
  H      434.044    -157.350    -434.771
  H      434.821    -158.100    -436.145
  H      435.443    -158.370    -434.535

 3  4  5  6  7  8  9  10  11  12  22  25  29  30  31  32 0
 6-311+G(2d,p)
 ****
 33  36  37 0
 6-311+G(2d,p)
 ****
 1  2  13  14  15  16  17  18  19  20  21  23  24  26 0
 3-21G
 ****
 27  28  34  35  38  39  40  41  42  43  44  45  46  47  48 0
 3-21G
 ****


