%nproc=1
%NoSave
%Mem=1900MB
#P OB98/GEN NMR

erre ene a

0 1
  C      140.844     135.016     125.437
  O      140.338     135.508     126.661
  H      140.404     135.592     124.619
  H      140.582     133.964     125.303
  H      141.930     135.136     125.404
  P      140.700     134.733     128.015
  C      138.417     133.596     128.368
  O      139.787     133.413     128.041
  C      137.593     132.374     127.957
  O      136.357     132.372     128.720
  C      137.234     132.350     126.467
  O      137.287     130.996     126.014
  C      135.808     132.859     126.463
  O      135.108     132.433     125.309
  C      135.262     132.320     127.788
  N      134.114     133.101     128.245
  C      132.857     132.507     128.101
  O      132.756     131.375     127.622
  N      131.740     133.226     128.435
  C      131.859     134.455     128.828
  N      130.709     135.124     129.106
  C      133.163     135.133     128.969
  C      134.238     134.405     128.667
  O      140.661     135.543     129.268
  O      142.167     134.154     127.737
  H      135.073     131.452     125.294
  H      142.840     134.793     128.034
  H      133.209     136.161     129.296
  H      135.236     134.823     128.730
  H      134.956     131.271     127.686
  H      135.807     133.956     126.471
  H      137.893     132.975     125.858
  H      138.144     131.470     128.243
  H      129.837     134.627     128.970
  H      138.057     134.479     127.829
  H      130.673     136.095     129.379
  H      138.313     133.774     129.443
  P      138.336     130.552     124.884
  C      136.727     130.869     122.918
  O      137.958     131.283     123.503
  O      138.545     129.078     124.769
  O      139.697     131.279     125.321
  H      140.457     130.741     125.029
  H      136.565     131.409     122.009
  H      135.925     131.066     123.598
  H      136.767     129.821     122.708

 6  7  8  9  10  11  12  13  14  15  16  26  30  31  32  33  35 0
 6-311+G(2d,p)
 ****
 37  38 0
 6-311+G(2d,p)
 ****
 1  2  3  4  5  17  18  19  20  21  22  23  24  25 0
 3-21G
 ****
 27  28  29  34  36  39  40  41  42  43  44  45  46 0
 3-21G
 ****


