%nproc=1
%NoSave
%Mem=1900MB
#P OB98/GEN NMR

erre ene a

0 1
  C      135.848     121.033     128.530
  O      135.159     121.333     127.319
  P      133.864     122.272     127.387
  C      132.273     120.175     127.126
  O      132.603     121.502     126.784
  C      130.743     120.022     127.149
  O      130.180     120.787     128.236
  C      130.070     120.506     125.867
  O      130.023     119.494     124.877
  C      128.704     120.925     126.370
  O      127.869     119.770     126.574
  C      129.067     121.575     127.726
  N      129.456     123.001     127.731
  C      128.525     123.975     127.379
  O      127.366     123.736     127.048
  N      128.963     125.273     127.428
  C      130.149     125.704     127.944
  O      130.464     126.884     128.017
  C      131.037     124.648     128.442
  C      130.665     123.374     128.305
  O      134.166     123.414     126.312
  O      133.585     122.840     128.744
  H      126.996     120.092     126.859
  H      134.248     124.281     126.751
  H      128.325     125.985     127.107
  H      131.969     124.948     128.903
  H      131.317     122.583     128.670
  H      128.239     121.472     128.437
  H      128.188     121.546     125.641
  H      130.576     121.398     125.488
  H      130.503     118.965     127.319
  H      132.688     119.908     128.100
  H      132.711     119.486     126.395
  P      131.338     119.141     124.034
  C      130.277     120.047     121.882
  O      130.836     118.918     122.526
  O      132.205     118.064     124.593
  O      132.109     120.545     123.938
  H      132.796     120.612     124.640
  H      130.126     119.809     120.825
  H      130.949     120.905     121.960
  H      129.310     120.290     122.332
  H      136.684     120.400     128.317
  H      135.184     120.533     129.204
  H      136.193     121.941     128.978

 3  4  5  6  7  8  9  10  11  12  13  23  28  29  30  31  32 0
 6-311+G(2d,p)
 ****
 33  34 0
 6-311+G(2d,p)
 ****
 1  2  14  15  16  17  18  19  20  21  22  24  25  26  27 0
 3-21G
 ****
 35  36  37  38  39  40  41  42  43  44  45 0
 3-21G
 ****


