%nproc=1
%NoSave
%Mem=1900MB
#P OB98/GEN NMR

erre ene a

0 1
  C     -287.173     190.129    -231.172
  O     -288.125     189.175    -230.741
  H     -286.448     189.629    -231.821
  H     -286.644     190.545    -230.314
  H     -287.657     190.931    -231.738
  P     -289.416     189.682    -229.941
  C     -291.049     188.128    -231.201
  O     -290.471     188.472    -229.944
  C     -291.857     186.836    -231.064
  O     -291.015     185.775    -230.570
  C     -293.019     186.936    -230.080
  O     -294.106     187.652    -230.646
  C     -293.294     185.462    -229.820
  O     -294.066     184.885    -230.886
  C     -291.859     184.879    -229.800
  N     -291.327     184.694    -228.457
  C     -290.692     183.476    -228.198
  O     -290.610     182.577    -229.038
  N     -290.179     183.323    -226.943
  C     -290.302     184.207    -225.908
  O     -289.862     183.997    -224.784
  C     -291.006     185.463    -226.223
  C     -291.477     185.639    -227.463
  O     -289.977     191.000    -230.372
  O     -288.925     189.720    -228.418
  H     -295.003     185.043    -230.666
  H     -288.711     190.639    -228.167
  H     -289.730     182.444    -226.736
  H     -291.127     186.186    -225.427
  H     -292.007     186.559    -227.709
  H     -291.835     183.913    -230.318
  H     -293.850     185.296    -228.899
  H     -292.691     187.402    -229.144
  H     -292.215     186.552    -232.061
  H     -290.246     187.980    -231.929
  H     -291.686     188.954    -231.535
  P     -295.151     188.423    -229.713
  C     -295.597     190.471    -231.190
  O     -296.132     189.257    -230.677
  O     -294.549     189.216    -228.599
  O     -296.093     187.265    -229.151
  H     -295.887     187.090    -228.211
  H     -296.324     190.945    -231.815
  H     -294.718     190.260    -231.763
  H     -295.346     191.121    -230.378

 6  7  8  9  10  11  12  13  14  15  16  26  31  32  33  34  35 0
 6-311+G(2d,p)
 ****
 36  37 0
 6-311+G(2d,p)
 ****
 1  2  3  4  5  17  18  19  20  21  22  23  24  25 0
 3-21G
 ****
 27  28  29  30  38  39  40  41  42  43  44  45 0
 3-21G
 ****


