%nproc=1
%NoSave
%Mem=1900MB
#P OB98/GEN NMR

erre ene a

0 1
  C      287.744     -44.752      61.891
  O      286.552     -44.884      61.145
  H      287.568     -45.129      62.902
  H      288.032     -43.699      61.957
  H      288.554     -45.331      61.439
  P      286.590     -44.592      59.568
  C      286.289     -42.034      59.725
  O      287.162     -43.105      59.386
  C      286.531     -40.849      58.791
  O      287.904     -40.416      58.884
  C      286.293     -41.163      57.320
  O      284.907     -41.213      57.030
  C      287.044     -40.013      56.662
  O      286.256     -38.814      56.671
  C      288.272     -39.874      57.595
  N      289.469     -40.534      57.072
  C      290.427     -39.706      56.494
  O      290.285     -38.490      56.379
  N      291.556     -40.332      56.033
  C      291.775     -41.681      56.016
  O      292.782     -42.197      55.542
  C      290.713     -42.506      56.608
  C      289.627     -41.906      57.100
  O      285.326     -44.874      58.824
  O      287.798     -45.507      59.047
  H      286.792     -38.122      56.239
  H      287.443     -46.321      58.642
  H      292.256     -39.752      55.601
  H      290.848     -43.581      56.608
  H      288.830     -42.500      57.535
  H      288.508     -38.816      57.756
  H      287.295     -40.216      55.619
  H      286.783     -42.104      57.044
  H      285.893     -40.020      59.123
  H      286.488     -41.731      60.761
  H      285.254     -42.384      59.649
  P      284.349     -42.147      55.858
  C      284.101     -40.317      54.084
  O      284.802     -41.497      54.461
  O      282.896     -42.482      55.947
  O      285.253     -43.468      55.953
  H      284.731     -44.198      56.339
  H      284.475     -39.965      53.145
  H      284.244     -39.564      54.830
  H      283.058     -40.536      53.993

 6  7  8  9  10  11  12  13  14  15  16  26  31  32  33  34  35 0
 6-311+G(2d,p)
 ****
 36  37 0
 6-311+G(2d,p)
 ****
 1  2  3  4  5  17  18  19  20  21  22  23  24  25 0
 3-21G
 ****
 27  28  29  30  38  39  40  41  42  43  44  45 0
 3-21G
 ****


