%nproc=1
%NoSave
%Mem=1900MB
#P OB98/GEN NMR

erre ene a

0 1
  C       32.899     -81.991     -38.517
  O       33.591     -80.759     -38.566
  H       33.615     -82.788     -38.304
  H       32.421     -82.193     -39.479
  H       32.146     -81.971     -37.723
  P       32.711     -79.457     -38.893
  C       33.410     -78.714     -41.277
  O       32.494     -79.454     -40.484
  C       34.763     -79.418     -41.324
  O       34.604     -80.808     -41.688
  C       35.751     -78.818     -42.318
  O       36.415     -77.695     -41.765
  C       36.685     -79.997     -42.555
  O       37.658     -80.121     -41.497
  C       35.713     -81.185     -42.545
  N       36.423     -84.275     -46.474
  C       37.077     -84.210     -45.261
  N       38.111     -85.064     -45.093
  N       36.758     -83.380     -44.305
  C       35.725     -82.566     -44.629
  C       34.985     -82.543     -45.789
  C       35.331     -83.490     -46.827
  O       34.749     -83.642     -47.896
  N       34.007     -81.585     -45.734
  C       34.179     -81.005     -44.562
  N       35.221     -81.553     -43.862
  O       33.734     -78.246     -38.661
  O       31.476     -79.297     -38.074
  H       38.159     -79.291     -41.425
  H       33.237     -77.463     -38.359
  H       36.704     -84.949     -47.164
  H       33.580     -80.190     -44.180
  H       36.166     -82.084     -42.114
  H       37.247     -79.885     -43.483
  H       38.599     -85.468     -45.881
  H       35.248     -78.559     -43.257
  H       38.612     -85.007     -44.215
  H       35.179     -79.396     -40.308
  H       33.538     -77.719     -40.838
  H       33.007     -78.608     -42.290
  P       37.156     -76.694     -42.779
  C       39.659     -76.387     -42.144
  O       38.689     -77.161     -42.837
  O       37.221     -75.320     -41.960
  O       36.480     -76.531     -44.098
  H       37.401     -74.578     -42.568
  H       40.626     -76.824     -42.278
  H       39.419     -76.365     -41.102
  H       39.662     -75.389     -42.531

 6  7  8  9  10  11  12  13  14  15  26  29  33  34 0
 6-311+G(2d,p)
 ****
 36  38  39  40  41 0
 6-311+G(2d,p)
 ****
 1  2  3  4  5  16  17  18  19  20  21  22  23  24  25 0
 3-21G
 ****
 27  28  30  31  32  35  37  42  43  44  45  46  47 0
 3-21G
 ****
 48  49 0
 3-21G
 ****


