%nproc=1
%NoSave
%Mem=1900MB
#P OB98/GEN NMR

erre ene a

0 1
  C      190.149     309.954    -178.609
  O      191.557     310.038    -178.466
  P      192.286     308.818    -177.700
  C      192.816     310.228    -175.594
  O      193.336     309.448    -176.640
  C      193.858     311.226    -175.051
  O      195.028     310.522    -174.556
  C      194.345     312.226    -176.104
  O      194.615     313.457    -175.435
  C      195.655     311.622    -176.579
  O      196.490     312.587    -177.214
  C      196.177     311.059    -175.253
  N      200.619     309.953    -177.536
  C      199.846     311.083    -177.537
  N      198.668     311.280    -176.915
  C      198.315     310.180    -176.215
  C      198.985     308.985    -176.122
  C      200.186     308.871    -176.835
  N      200.948     307.727    -176.867
  N      198.269     308.077    -175.355
  C      197.194     308.754    -174.963
  N      197.189     310.024    -175.442
  O      193.220     308.178    -178.832
  O      191.342     307.814    -177.133
  H      197.365     312.178    -177.374
  H      192.863     307.321    -179.108
  H      200.233     311.914    -178.110
  H      196.382     308.334    -174.367
  H      196.640     311.837    -174.614
  H      195.447     310.812    -177.284
  H      193.654     312.391    -176.939
  H      193.418     311.772    -174.190
  H      192.495     309.572    -174.754
  H      201.786     307.738    -177.441
  H      200.614     306.907    -176.393
  H      191.919     310.740    -175.923
  P      193.372     314.459    -175.203
  C      194.580     316.509    -176.270
  O      193.983     315.927    -175.112
  O      192.909     314.119    -173.712
  O      192.287     314.277    -176.202
  H      191.962     314.341    -173.594
  H      194.288     317.563    -176.316
  H      194.256     316.007    -177.187
  H      195.663     316.431    -176.177
  H      189.791     310.817    -179.130
  H      189.694     309.907    -177.642
  H      189.899     309.074    -179.164

 3  4  5  6  7  8  9  10  11  12  22  25  29  30  31  32 0
 6-311+G(2d,p)
 ****
 33  36  37 0
 6-311+G(2d,p)
 ****
 1  2  13  14  15  16  17  18  19  20  21  23  24  26 0
 3-21G
 ****
 27  28  34  35  38  39  40  41  42  43  44  45  46  47  48 0
 3-21G
 ****


