%nproc=1
%NoSave
%Mem=1900MB
#P OB98/GEN NMR

erre ene a

0 1
  C     -107.952    -151.689    -147.836
  O     -106.556    -151.800    -147.647
  H     -108.454    -151.906    -146.889
  H     -108.288    -152.412    -148.585
  H     -108.215    -150.676    -148.152
  P     -105.630    -151.476    -148.916
  C     -105.532    -154.058    -149.224
  O     -104.821    -152.826    -149.237
  C     -104.609    -155.192    -149.657
  O     -104.256    -155.022    -151.048
  C     -103.285    -155.242    -148.901
  O     -103.426    -155.843    -147.624
  C     -102.427    -156.054    -149.862
  O     -102.640    -157.464    -149.699
  C     -102.946    -155.604    -151.234
  N      -98.766    -155.103    -154.108
  C      -99.455    -156.191    -153.694
  N     -100.574    -156.238    -152.942
  C     -100.982    -154.997    -152.625
  C     -100.380    -153.797    -152.970
  C      -99.217    -153.878    -153.754
  N      -98.499    -152.774    -154.146
  N     -101.069    -152.736    -152.419
  C     -102.072    -153.281    -151.762
  N     -102.061    -154.644    -151.864
  O     -104.514    -150.500    -148.305
  O     -106.334    -150.863    -150.079
  H     -102.029    -157.758    -148.994
  H     -104.777    -149.573    -148.454
  H      -99.047    -157.150    -154.004
  H     -102.820    -152.740    -151.194
  H     -103.063    -156.443    -151.929
  H     -101.364    -155.865    -149.701
  H     -102.860    -154.235    -148.812
  H     -105.151    -156.142    -149.555
  H     -106.376    -153.994    -149.921
  H     -105.917    -154.235    -148.214
  H      -97.660    -152.908    -154.687
  H      -98.769    -151.865    -153.796
  P     -102.651    -155.191    -146.384
  C     -100.919    -157.123    -146.221
  O     -101.941    -156.381    -145.575
  O     -103.837    -154.729    -145.415
  O     -101.747    -154.061    -146.739
  H     -104.000    -153.771    -145.509
  H     -100.549    -157.874    -145.555
  H     -100.121    -156.466    -146.496
  H     -101.317    -157.589    -147.099

 6  7  8  9  10  11  12  13  14  15  25  28  32  33  34  35 0
 6-311+G(2d,p)
 ****
 36  37  40 0
 6-311+G(2d,p)
 ****
 1  2  3  4  5  16  17  18  19  20  21  22  23  24 0
 3-21G
 ****
 26  27  29  30  31  38  39 41  42  43  44  45  46  47  48 0
 3-21G
 ****


