%nproc=1
%NoSave
%Mem=1900MB
#P OB98/GEN NMR

erre ene a

0 1
  C     -129.217     442.674    -430.395
  O     -128.058     443.364    -429.976
  H     -129.335     441.785    -429.771
  H     -129.106     442.356    -431.436
  H     -130.104     443.302    -430.286
  P     -127.719     444.787    -430.631
  C     -127.157     446.314    -428.626
  O     -126.645     445.508    -429.679
  C     -127.336     445.485    -427.350
  O     -126.093     444.786    -427.075
  C     -127.684     446.327    -426.117
  O     -128.601     445.600    -425.299
  C     -126.354     446.460    -425.399
  O     -126.516     446.673    -423.996
  C     -125.674     445.134    -425.741
  N     -121.799     446.604    -422.850
  C     -123.148     446.547    -422.568
  N     -123.530     446.963    -421.341
  N     -124.050     446.123    -423.417
  C     -123.523     445.721    -424.599
  C     -122.205     445.726    -424.999
  C     -121.224     446.214    -424.057
  O     -120.017     446.302    -424.256
  N     -122.075     445.254    -426.285
  C     -123.307     444.968    -426.657
  N     -124.225     445.245    -425.678
  O     -128.913     445.623    -430.970
  O     -126.868     444.429    -431.936
  H     -127.020     445.904    -423.649
  H     -127.401     444.540    -432.743
  H     -121.150     446.946    -422.164
  H     -123.593     444.566    -427.622
  H     -125.965     444.328    -425.061
  H     -125.793     447.308    -425.809
  H     -122.889     447.279    -420.629
  H     -128.109     447.296    -426.380
  H     -124.511     446.904    -421.098
  H     -128.103     444.722    -427.535
  H     -128.125     446.715    -428.942
  H     -126.472     447.147    -428.443
  P     -130.101     446.154    -425.136
  C     -131.276     443.938    -424.567
  O     -130.886     445.218    -424.090
  O     -130.831     446.417    -426.412
  O     -129.890     447.509    -424.304
  H     -130.553     448.167    -424.596
  H     -131.787     443.408    -423.790
  H     -130.407     443.388    -424.863
  H     -131.928     444.054    -425.408

 6  7  8  9  10  11  12  13  14  15  26  29  33  34 0
 6-311+G(2d,p)
 ****
 36  38  39  40  41 0
 6-311+G(2d,p)
 ****
 1  2  3  4  5  16  17  18  19  20  21  22  23  24  25 0
 3-21G
 ****
 27  28  30  31  32  35  37  42  43  44  45  46  47 0
 3-21G
 ****
 48  49 0
 3-21G
 ****


