%nproc=1
%NoSave
%Mem=1900MB
#P OB98/GEN NMR

erre ene a

0 1
  C       -5.106    -157.625     135.795
  O       -4.117    -157.959     136.745
  H       -5.079    -156.546     135.623
  H       -6.092    -157.892     136.184
  H       -4.927    -158.138     134.847
  P       -3.770    -159.514     136.922
  C       -5.731    -159.810     138.588
  O       -5.123    -160.250     137.385
  C       -6.252    -161.005     139.389
  O       -7.415    -161.549     138.711
  C       -5.229    -162.138     139.544
  O       -5.353    -162.697     140.854
  C       -5.673    -163.159     138.509
  O       -5.261    -164.484     138.837
  C       -7.185    -162.958     138.518
  N      -10.539    -166.169     136.559
  C      -10.233    -165.892     137.877
  N      -10.918    -166.579     138.816
  N       -9.332    -165.016     138.244
  C       -8.751    -164.378     137.196
  C       -8.963    -164.567     135.852
  C       -9.943    -165.560     135.459
  O      -10.241    -165.866     134.309
  N       -8.153    -163.752     135.102
  C       -7.455    -163.073     135.994
  N       -7.786    -163.413     137.277
  O       -2.861    -159.536     138.240
  O       -3.069    -160.150     135.766
  H       -5.757    -164.757     139.640
  H       -1.959    -159.835     138.014
  H      -11.232    -166.863     136.334
  H       -6.697    -162.335     135.768
  H       -7.675    -163.501     139.336
  H       -5.250    -162.900     137.531
  H      -11.657    -167.231     138.608
  H       -4.199    -161.811     139.383
  H      -10.737    -166.365     139.791
  H       -6.593    -160.648     140.368
  H       -6.568    -159.146     138.342
  H       -5.000    -159.253     139.184
  P       -4.098    -162.519     141.842
  C       -2.477    -164.135     140.625
  O       -2.755    -162.794     141.004
  O       -4.209    -163.794     142.805
  O       -4.117    -161.245     142.618
  H       -4.499    -163.514     143.693
  H       -1.559    -164.168     140.077
  H       -3.272    -164.504     140.011
  H       -2.391    -164.743     141.501

 6  7  8  9  10  11  12  13  14  15  26  29  33  34 0
 6-311+G(2d,p)
 ****
 36  38  39  40  41 0
 6-311+G(2d,p)
 ****
 1  2  3  4  5  16  17  18  19  20  21  22  23  24  25 0
 3-21G
 ****
 27  28  30  31  32  35  37  42  43  44  45  46  47 0
 3-21G
 ****
 48  49 0
 3-21G
 ****


