%nproc=1
%NoSave
%Mem=1900MB
#P OB98/GEN NMR

erre ene a

0 1
  C      539.571    -465.902     416.825
  O      540.515    -466.933     416.672
  H      540.072    -465.015     417.217
  H      538.807    -466.200     417.557
  H      539.102    -465.650     415.888
  P      540.023    -468.360     416.150
  C      541.618    -468.428     414.113
  O      540.248    -468.333     414.556
  C      542.212    -467.071     413.819
  O      542.230    -466.284     415.017
  C      543.667    -467.145     413.281
  O      543.783    -466.284     412.149
  C      544.472    -466.581     414.439
  O      545.718    -466.050     414.019
  C      543.477    -465.587     415.048
  N      543.880    -465.196     416.389
  C      544.779    -464.123     416.463
  O      545.186    -463.552     415.435
  N      545.217    -463.714     417.694
  C      544.850    -464.368     418.730
  N      545.345    -463.918     419.952
  C      543.943    -465.485     418.713
  C      543.490    -465.870     417.521
  O      538.656    -468.765     416.586
  O      541.158    -469.390     416.640
  H      545.565    -465.394     413.285
  H      540.778    -470.303     416.666
  H      543.656    -466.039     419.632
  H      542.778    -466.717     417.389
  H      543.388    -464.678     414.408
  H      544.692    -467.389     415.155
  H      543.987    -468.161     413.008
  H      541.565    -466.564     413.093
  H      545.982    -463.118     419.903
  H      541.633    -469.097     413.209
  H      545.169    -464.362     420.838
  H      542.171    -468.935     414.901
  P      544.020    -467.029     410.734
  C      542.381    -465.679     409.222
  O      542.673    -466.914     409.870
  O      544.133    -468.571     411.129
  O      545.257    -466.551     410.023
  H      545.051    -468.882     411.007
  H      541.456    -465.765     408.691
  H      543.166    -465.443     408.534
  H      542.302    -464.902     409.954

 6  7  8  9  10  11  12  13  14  15  16  26  30  31  32  33  35 0
 6-311+G(2d,p)
 ****
 37  38 0
 6-311+G(2d,p)
 ****
 1  2  3  4  5  17  18  19  20  21  22  23  24  25 0
 3-21G
 ****
 27  28  29  34  36  39  40  41  42  43  44  45  46 0
 3-21G
 ****


