%nproc=1
%NoSave
%Mem=1900MB
#P OB98/GEN NMR

erre ene a

0 1
  C      -45.014     -96.643       4.467
  O      -45.388     -97.563       3.439
  P      -45.811     -99.034       3.926
  C      -48.260     -98.695       3.155
  O      -47.388     -99.019       4.227
  C      -49.728     -98.740       3.594
  O      -50.104    -100.079       4.028
  C      -50.056     -97.789       4.750
  O      -51.394     -97.317       4.539
  C      -50.040     -98.709       5.956
  O      -50.730     -98.134       7.063
  C      -50.686     -99.950       5.344
  N      -52.525    -102.776       9.102
  C      -52.937    -101.546       8.630
  N      -54.031    -101.011       9.212
  N      -52.331    -100.896       7.670
  C      -51.274    -101.571       7.155
  C      -50.778    -102.799       7.524
  C      -51.440    -103.491       8.609
  O      -51.118    -104.583       9.060
  N      -49.707    -103.165       6.742
  C      -49.525    -102.121       5.951
  N      -50.478    -101.156       6.123
  O      -45.144     -99.141       5.376
  O      -45.345    -100.123       3.018
  H      -51.622     -97.869       6.750
  H      -44.318     -99.658       5.329
  H      -53.019    -103.224       9.855
  H      -48.738    -102.025       5.223
  H      -51.773     -99.840       5.231
  H      -49.008     -98.914       6.262
  H      -54.575    -101.480       9.923
  H      -49.369     -96.943       4.852
  H      -54.379    -100.128       8.859
  H      -50.352     -98.493       2.726
  H      -48.114     -99.396       2.331
  H      -47.994     -97.707       2.765
  P      -51.610     -95.745       4.334
  C      -53.030     -95.785       2.171
  O      -51.783     -95.486       2.764
  O      -50.163     -95.137       4.657
  O      -52.652     -95.139       5.215
  H      -50.263     -94.297       5.143
  H      -53.158     -95.157       1.286
  H      -53.861     -95.600       2.857
  H      -53.042     -96.834       1.865
  H      -44.754     -95.703       4.027
  H      -44.173     -97.030       5.004
  H      -45.835     -96.507       5.140

 3  4  5  6  7  8  9  10  11  12  23  26  30  31 0
 6-311+G(2d,p)
 ****
 33  35  36  37  38 0
 6-311+G(2d,p)
 ****
 1  2  13  14  15  16  17  18  19  20  21  22  24  25 0
 3-21G
 ****
 27  28  29  32  34  39  40  41  42  43  44  45  46  47  48  49 0
 3-21G
 ****


