%nproc=1
%NoSave
%Mem=1900MB
#P OB98/GEN NMR

erre ene a

0 1
  C     -341.794     122.176    -306.948
  O     -342.367     120.970    -306.433
  P     -343.037     119.855    -307.369
  C     -341.575     117.765    -306.985
  O     -342.812     118.406    -306.716
  C     -341.242     116.699    -305.935
  O     -340.818     117.313    -304.702
  C     -342.410     115.789    -305.559
  O     -342.661     114.826    -306.566
  C     -341.917     115.219    -304.233
  O     -341.025     114.114    -304.447
  C     -341.168     116.417    -303.623
  N     -341.944     117.107    -302.601
  C     -341.966     116.513    -301.331
  O     -341.409     115.426    -301.143
  N     -342.658     117.140    -300.323
  C     -343.320     118.228    -300.573
  N     -343.969     118.808    -299.531
  C     -343.385     118.845    -301.912
  C     -342.680     118.234    -302.866
  O     -342.634     119.942    -308.802
  O     -344.621     120.089    -307.213
  H     -340.630     113.905    -303.580
  H     -345.058     119.834    -308.049
  H     -343.970     119.734    -302.086
  H     -342.673     118.623    -303.875
  H     -340.215     116.092    -303.182
  H     -342.735     114.859    -303.605
  H     -343.305     116.403    -305.375
  H     -340.407     116.098    -306.321
  H     -343.899     118.369    -298.625
  H     -340.779     118.529    -306.984
  H     -344.514     119.666    -299.613
  H     -341.617     117.315    -307.984
  P     -344.025     114.898    -307.407
  C     -343.652     113.407    -309.467
  O     -344.187     113.492    -308.160
  O     -344.199     116.104    -308.268
  O     -345.162     114.828    -306.284
  H     -345.939     115.336    -306.590
  H     -343.470     112.349    -309.707
  H     -342.717     113.967    -309.545
  H     -344.369     113.809    -310.187
  H     -341.410     122.762    -306.139
  H     -342.545     122.734    -307.468
  H     -340.999     121.934    -307.622

 3  4  5  6  7  8  9  10  11  12  13  23  27  28  29  30  32 0
 6-311+G(2d,p)
 ****
 34  35 0
 6-311+G(2d,p)
 ****
 1  2  14  15  16  17  18  19  20  21  22  24  25  26 0
 3-21G
 ****
 31  33  36  37  38  39  40  41  42  43  44  45  46 0
 3-21G
 ****


