%nproc=1
%NoSave
%Mem=1900MB
#P OB98/GEN NMR

erre ene a

0 1
  C      255.606     -90.274      33.115
  O      254.781     -91.443      32.977
  P      255.351     -92.712      32.176
  C      254.862     -91.980      29.721
  O      255.835     -92.280      30.709
  C      255.517     -91.691      28.359
  O      254.492     -91.409      27.359
  C      256.487     -90.503      28.358
  O      257.521     -90.804      27.408
  C      255.617     -89.370      27.846
  O      256.366     -88.277      27.335
  C      254.796     -90.117      26.791
  N      253.568     -89.426      26.388
  C      253.332     -89.255      25.026
  O      254.114     -89.592      24.140
  N      252.150     -88.644      24.701
  C      251.222     -88.158      25.578
  O      250.197     -87.591      25.221
  C      251.537     -88.341      26.999
  C      252.675     -88.955      27.332
  O      254.015     -93.537      31.862
  O      256.317     -93.564      32.932
  H      257.054     -88.641      26.749
  H      254.154     -94.484      32.062
  H      251.955     -88.523      23.718
  H      250.826     -87.975      27.729
  H      252.924     -89.112      28.380
  H      255.414     -90.298      25.903
  H      254.994     -88.993      28.664
  H      256.924     -90.305      29.344
  H      256.031     -92.607      28.031
  H      254.290     -91.099      30.031
  H      254.170     -92.823      29.633
  P      258.757     -91.710      27.886
  C      259.667     -90.020      29.660
  O      259.109     -91.285      29.386
  O      259.944     -91.050      27.028
  O      258.590     -93.174      27.626
  H      259.925     -90.077      27.054
  H      259.194     -89.237      29.060
  H      260.740     -90.039      29.460
  H      259.510     -89.786      30.720
  H      255.078     -89.528      33.672
  H      255.847     -89.891      32.145
  H      256.507     -90.532      33.631

 3  4  5  6  7  8  9  10  11  12  13  23  28  29  30  31  32 0
 6-311+G(2d,p)
 ****
 33  34 0
 6-311+G(2d,p)
 ****
 1  2  14  15  16  17  18  19  20  21  22  24  25  26 0
 3-21G
 ****
 27  35  36  37  38  39  40  41  42  43  44  45 0
 3-21G
 ****


