%nproc=1
%NoSave
%Mem=1900MB
#P OB98/GEN NMR

erre ene a

0 1
  C      -83.867    -127.276    -137.405
  O      -83.599    -127.134    -136.025
  H      -83.014    -126.896    -137.972
  H      -84.755    -126.699    -137.676
  H      -84.019    -128.329    -137.660
  P      -84.679    -127.739    -135.006
  C      -85.790    -125.420    -134.592
  O      -85.948    -126.754    -135.056
  C      -87.139    -124.698    -134.630
  O      -87.456    -124.381    -136.013
  C      -88.296    -125.542    -134.076
  O      -89.206    -124.687    -133.379
  C      -88.957    -126.090    -135.327
  O      -90.320    -126.454    -135.144
  C      -88.768    -124.916    -136.296
  N      -88.873    -125.317    -137.697
  C      -90.133    -125.268    -138.284
  O      -91.148    -124.840    -137.734
  N      -90.205    -125.741    -139.570
  C      -89.176    -126.266    -140.296
  O      -89.306    -126.696    -141.436
  C      -87.871    -126.300    -139.617
  C      -87.782    -125.833    -138.368
  O      -84.040    -127.440    -133.567
  O      -85.010    -129.180    -135.198
  H      -83.481    -128.185    -133.283
  H      -90.795    -125.679    -134.783
  H      -91.112    -125.711    -140.014
  H      -87.030    -126.718    -140.157
  H      -86.837    -125.859    -137.834
  H      -89.497    -124.122    -136.080
  H      -88.417    -126.974    -135.683
  H      -87.958    -126.339    -133.414
  H      -87.050    -123.747    -134.091
  H      -85.083    -124.896    -135.243
  H      -85.398    -125.435    -133.572
  P      -88.946    -124.452    -131.810
  C      -91.026    -125.811    -130.989
  O      -89.612    -125.708    -131.064
  O      -89.936    -123.237    -131.506
  O      -87.507    -124.201    -131.491
  H      -90.771    -123.280    -131.998
  H      -91.291    -126.703    -130.461
  H      -91.434    -125.847    -131.978
  H      -91.419    -124.961    -130.472

 6  7  8  9  10  11  12  13  14  15  16  27  31  32  33  34  35 0
 6-311+G(2d,p)
 ****
 36  37 0
 6-311+G(2d,p)
 ****
 1  2  3  4  5  17  18  19  20  21  22  23  24  25 0
 3-21G
 ****
 26  28  29  30  38  39  40  41  42  43  44  45 0
 3-21G
 ****


