%nproc=1
%NoSave
%Mem=1900MB
#P OB98/GEN NMR

erre ene a

0 1
  C     -822.313    1337.763     605.875
  O     -821.221    1336.972     606.322
  H     -822.870    1338.108     606.754
  H     -822.975    1337.160     605.252
  H     -821.948    1338.631     605.322
  P     -820.172    1336.501     605.206
  C     -821.732    1334.541     604.406
  O     -820.483    1334.946     604.942
  C     -821.656    1333.105     603.889
  O     -820.652    1333.037     602.841
  C     -821.267    1332.084     604.967
  O     -821.966    1330.860     604.713
  C     -819.778    1331.865     604.729
  O     -819.328    1330.619     605.241
  C     -819.699    1332.020     603.194
  N     -818.353    1332.354     602.740
  C     -817.517    1331.282     602.395
  O     -817.917    1330.125     602.494
  N     -816.238    1331.555     601.985
  C     -815.791    1332.769     601.988
  N     -814.511    1332.964     601.586
  C     -816.627    1333.929     602.385
  C     -817.880    1333.647     602.738
  O     -818.802    1336.482     606.036
  O     -820.138    1337.358     603.984
  H     -818.405    1330.476     604.950
  H     -818.882    1336.068     606.911
  H     -816.214    1334.923     602.378
  H     -818.564    1334.437     603.033
  H     -819.996    1331.087     602.702
  H     -819.199    1332.659     605.217
  H     -821.487    1332.426     605.980
  H     -822.612    1332.849     603.429
  H     -813.967    1332.141     601.352
  H     -822.023    1335.207     603.587
  H     -814.045    1333.861     601.614
  H     -822.476    1334.624     605.195
  P     -823.504    1330.734     605.140
  C     -822.829    1329.737     607.437
  O     -823.635    1329.600     606.269
  O     -824.492    1330.630     604.015
  O     -823.761    1332.077     605.970
  H     -824.640    1332.419     605.722
  H     -823.017    1328.917     608.098
  H     -823.069    1330.656     607.930
  H     -821.796    1329.741     607.159

 6  7  8  9  10  11  12  13  14  15  16  26  30  31  32  33  35 0
 6-311+G(2d,p)
 ****
 37  38 0
 6-311+G(2d,p)
 ****
 1  2  3  4  5  17  18  19  20  21  22  23  24  25 0
 3-21G
 ****
 27  28  29  34  36  39  40  41  42  43  44  45  46 0
 3-21G
 ****


