%nproc=1
%NoSave
%Mem=1900MB
#P OB98/GEN NMR

erre ene a

0 1
  C      242.151     500.516     352.200
  O      242.452     499.855     350.989
  H      241.603     499.825     352.845
  H      241.529     501.389     352.002
  H      243.072     500.816     352.707
  P      243.423     500.628     349.965
  C      242.997     502.411     348.080
  O      242.466     501.612     349.130
  C      242.064     503.587     347.792
  O      240.778     503.078     347.365
  C      241.824     504.510     348.995
  O      241.744     505.856     348.533
  C      240.473     504.055     349.525
  O      239.824     505.080     350.275
  C      239.768     503.638     348.229
  N      238.688     502.673     348.469
  C      237.511     503.180     349.037
  O      237.422     504.373     349.330
  N      236.478     502.313     349.299
  C      236.629     501.038     349.074
  N      235.577     500.235     349.380
  C      237.872     500.464     348.534
  C      238.844     501.326     348.241
  O      243.783     499.467     348.922
  O      244.601     501.275     350.609
  H      239.766     505.879     349.715
  H      243.022     498.908     348.685
  H      237.958     499.391     348.394
  H      239.789     500.980     347.833
  H      239.340     504.514     347.719
  H      240.600     503.189     350.188
  H      242.600     504.420     349.759
  H      242.471     504.155     346.938
  H      234.756     500.666     349.777
  H      243.123     501.811     347.173
  H      235.607     499.229     349.300
  H      243.982     502.766     348.392
  P      242.435     507.017     349.399
  C      241.726     508.942     350.961
  O      241.287     507.878     350.114
  O      243.488     507.823     348.686
  O      243.083     506.216     350.630
  H      243.955     506.625     350.836
  H      240.876     509.440     351.378
  H      242.302     509.639     350.389
  H      242.329     508.544     351.750

 6  7  8  9  10  11  12  13  14  15  16  26  30  31  32  33  35 0
 6-311+G(2d,p)
 ****
 37  38 0
 6-311+G(2d,p)
 ****
 1  2  3  4  5  17  18  19  20  21  22  23  24  25 0
 3-21G
 ****
 27  28  29  34  36  39  40  41  42  43  44  45  46 0
 3-21G
 ****


