%nproc=1
%NoSave
%Mem=1900MB
#P OB98/GEN NMR

erre ene a

0 1
  C     -231.225     261.224    -229.780
  O     -229.920     260.737    -230.007
  H     -231.177     262.311    -229.659
  H     -231.626     260.785    -228.862
  H     -231.889     260.995    -230.619
  P     -229.740     259.287    -230.659
  C     -228.731     257.558    -229.029
  O     -229.917     258.189    -229.499
  C     -228.032     258.398    -227.956
  O     -228.981     258.765    -226.932
  C     -226.896     257.637    -227.262
  O     -225.645     257.720    -227.919
  C     -226.850     258.321    -225.897
  O     -225.982     259.467    -225.919
  C     -228.302     258.749    -225.664
  N     -229.244     257.541    -220.781
  C     -228.289     258.408    -221.292
  N     -227.472     258.989    -220.387
  N     -228.161     258.656    -222.569
  C     -228.981     257.924    -223.356
  C     -229.950     257.024    -222.964
  C     -230.142     256.811    -221.547
  O     -230.978     256.069    -221.044
  N     -230.564     256.441    -224.049
  C     -229.910     256.930    -225.085
  N     -228.995     257.890    -224.718
  O     -228.169     259.212    -230.971
  O     -230.539     259.039    -231.905
  H     -225.147     259.202    -226.351
  H     -228.018     258.659    -231.761
  H     -229.318     257.415    -219.787
  H     -230.085     256.648    -226.118
  H     -228.355     259.772    -225.265
  H     -226.455     257.643    -225.135
  H     -227.474     258.769    -219.405
  H     -227.173     256.584    -227.108
  H     -226.646     259.481    -220.735
  H     -227.668     259.331    -228.409
  H     -228.079     257.439    -229.894
  H     -228.958     256.560    -228.641
  P     -224.515     256.617    -227.670
  C     -222.366     257.139    -226.244
  O     -223.766     256.960    -226.299
  O     -223.418     256.965    -228.783
  O     -224.966     255.197    -227.753
  H     -223.514     256.375    -229.552
  H     -222.074     257.360    -225.239
  H     -222.085     257.950    -226.883
  H     -221.879     256.243    -226.569

 6  7  8  9  10  11  12  13  14  15  26  29  33  34 0
 6-311+G(2d,p)
 ****
 36  38  39  40  41 0
 6-311+G(2d,p)
 ****
 1  2  3  4  5  16  17  18  19  20  21  22  23  24  25 0
 3-21G
 ****
 27  28  30  31  32  35  37  42  43  44  45  46  47 0
 3-21G
 ****
 48  49 0
 3-21G
 ****


