%nproc=1
%NoSave
%Mem=1900MB
#P OB98/GEN NMR

erre ene a

0 1
  C     -472.344     877.246     519.847
  O     -472.566     878.559     519.377
  P     -474.041     879.205     519.398
  C     -473.652     880.236     521.748
  O     -473.931     880.477     520.358
  C     -473.061     881.505     522.384
  O     -471.720     881.719     521.889
  C     -473.816     882.787     522.064
  O     -475.013     882.882     522.822
  C     -472.741     883.832     522.357
  O     -472.679     884.070     523.796
  C     -471.462     883.129     521.891
  N     -471.021     883.603     520.568
  C     -470.602     884.907     520.471
  O     -470.583     885.654     521.465
  N     -470.162     885.378     519.263
  C     -470.165     884.617     518.212
  N     -469.657     885.097     517.050
  C     -470.667     883.224     518.247
  C     -471.068     882.776     519.448
  O     -475.145     878.242     519.766
  O     -474.225     879.861     517.956
  H     -472.075     884.812     523.940
  H     -474.584     879.239     517.270
  H     -470.672     882.615     517.359
  H     -471.448     881.782     519.568
  H     -470.655     883.296     522.614
  H     -472.944     884.813     521.894
  H     -474.083     882.824     520.979
  H     -473.021     881.345     523.465
  H     -469.155     885.995     517.124
  H     -472.922     879.429     521.824
  H     -469.376     884.488     516.308
  H     -474.573     879.944     522.253
  P     -476.313     883.516     522.104
  C     -477.054     881.276     521.029
  O     -477.359     882.304     521.953
  O     -475.793     883.798     520.605
  O     -476.835     884.746     522.764
  H     -475.572     884.745     520.489
  H     -477.733     880.425     521.222
  H     -476.022     880.910     521.183
  H     -477.175     881.612     520.010
  H     -471.306     877.003     519.750
  H     -472.927     876.558     519.271
  H     -472.630     877.182     520.876

 3  4  5  6  7  8  9  10  11  12  13  23  27  28  29  30  32 0
 6-311+G(2d,p)
 ****
 34  35 0
 6-311+G(2d,p)
 ****
 1  2  14  15  16  17  18  19  20  21  22  24  25  26 0
 3-21G
 ****
 31  33  36  37  38  39  40  41  42  43  44  45  46 0
 3-21G
 ****


