%nproc=1
%NoSave
%Mem=1900MB
#P OB98/GEN NMR

erre ene a

0 1
  C      -83.717    -144.800      91.643
  O      -83.958    -143.727      92.529
  H      -84.578    -145.472      91.660
  H      -82.836    -145.354      91.974
  H      -83.569    -144.440      90.621
  P      -83.029    -142.428      92.381
  C      -81.982    -142.498      94.754
  O      -82.850    -141.821      93.858
  C      -81.574    -141.573      95.902
  O      -82.784    -141.030      96.514
  C      -80.760    -142.265      97.009
  O      -79.779    -141.345      97.505
  C      -81.794    -142.486      98.097
  O      -81.205    -142.620      99.384
  C      -82.650    -141.234      97.933
  N      -84.812    -141.770     102.431
  C      -83.514    -141.444     102.091
  N      -82.631    -141.296     103.104
  N      -83.108    -141.283     100.860
  C      -84.096    -141.440      99.943
  C      -85.415    -141.765     100.148
  C      -85.848    -141.959     101.517
  O      -86.976    -142.269     101.880
  N      -86.079    -141.893      98.955
  C      -85.158    -141.667      98.033
  N      -83.939    -141.388      98.584
  O      -84.005    -141.382      91.660
  O      -81.765    -142.630      91.616
  H      -81.908    -142.866     100.020
  H      -83.862    -141.408      90.695
  H      -85.068    -141.900     103.394
  H      -85.319    -141.711      96.965
  H      -82.179    -140.342      98.365
  H      -82.375    -143.393      97.885
  H      -82.874    -141.376     104.079
  H      -80.271    -143.191      96.688
  H      -81.685    -141.019     102.872
  H      -81.017    -140.724      95.487
  H      -81.082    -142.814      94.216
  H      -82.487    -143.387      95.144
  P      -78.252    -141.559      97.061
  C      -77.322    -141.734      99.486
  O      -77.298    -141.046      98.244
  O      -78.050    -140.454      95.921
  O      -77.958    -142.932      96.552
  H      -77.439    -140.791      95.239
  H      -76.635    -141.272     100.163
  H      -77.040    -142.755      99.334
  H      -78.309    -141.694      99.897

 6  7  8  9  10  11  12  13  14  15  26  29  33  34 0
 6-311+G(2d,p)
 ****
 36  38  39  40  41 0
 6-311+G(2d,p)
 ****
 1  2  3  4  5  16  17  18  19  20  21  22  23  24  25 0
 3-21G
 ****
 27  28  30  31  32  35  37  42  43  44  45  46  47 0
 3-21G
 ****
 48  49 0
 3-21G
 ****


