%nproc=1
%NoSave
%Mem=1900MB
#P OB98/GEN NMR

erre ene a

0 1
  C     -358.421    -110.633     338.729
  O     -357.200    -110.974     339.358
  H     -358.518    -109.542     338.720
  H     -359.262    -111.053     339.289
  H     -358.428    -110.998     337.699
  P     -356.857    -112.540     339.455
  C     -354.717    -112.314     338.016
  O     -356.031    -112.845     338.114
  C     -353.677    -113.433     338.106
  O     -353.861    -114.382     337.040
  C     -352.236    -112.963     337.999
  O     -351.768    -112.455     339.240
  C     -351.536    -114.265     337.625
  O     -351.343    -115.069     338.805
  C     -352.562    -114.943     336.696
  N     -349.902    -116.519     332.593
  C     -349.778    -116.800     333.906
  N     -350.487    -116.310     334.945
  C     -351.421    -115.442     334.517
  C     -351.664    -115.051     333.210
  C     -350.863    -115.637     332.213
  N     -350.999    -115.352     330.869
  N     -352.700    -114.137     333.153
  C     -353.107    -114.014     334.407
  N     -352.340    -114.759     335.271
  O     -358.011    -113.438     339.738
  O     -355.707    -112.534     340.571
  H     -350.607    -114.671     339.315
  H     -355.124    -111.763     340.457
  H     -349.002    -117.519     334.163
  H     -353.951    -113.422     334.728
  H     -352.615    -116.025     336.868
  H     -350.548    -114.099     337.188
  H     -352.107    -112.241     337.179
  H     -353.844    -113.974     339.050
  H     -354.541    -111.580     338.809
  H     -350.276    -115.678     330.250
  H     -351.626    -114.608     330.606
  H     -354.635    -111.803     337.048
  P     -350.689    -111.270     339.291
  C     -352.559    -109.509     339.445
  O     -351.421    -109.957     338.718
  O     -349.380    -111.582     338.647
  O     -350.524    -110.943     340.846
  H     -349.594    -110.742     341.050
  H     -352.961    -108.636     338.976
  H     -352.271    -109.274     340.449
  H     -353.300    -110.280     339.458

 6  7  8  9  10  11  12  13  14  15  25  28  32  33  34  35 0
 6-311+G(2d,p)
 ****
 36  39  40 0
 6-311+G(2d,p)
 ****
 1  2  3  4  5  16  17  18  19  20  21  22  23  24 0
 3-21G
 ****
 26  27  29  30  31  37  38  41  42  43  44  45  46  47 0
 3-21G
 ****
 48 0
 3-21G
 ****


