%nproc=1
%NoSave
%Mem=1900MB
#P OB98/GEN NMR

erre ene a

0 1
  C      178.796    -135.696     -62.821
  O      178.340    -134.631     -61.985
  P      178.798    -134.689     -60.447
  C      180.823    -133.071     -60.588
  O      179.511    -133.296     -60.092
  C      181.749    -132.594     -59.468
  O      183.140    -132.679     -59.832
  C      181.512    -131.144     -59.066
  O      180.385    -131.057     -58.211
  C      182.821    -130.798     -58.368
  O      182.809    -131.222     -56.990
  C      183.855    -131.606     -59.169
  N      188.470    -130.663     -61.044
  C      188.096    -131.403     -59.938
  N      189.094    -131.998     -59.249
  N      186.857    -131.549     -59.547
  C      185.965    -130.901     -60.331
  C      186.209    -130.161     -61.466
  C      187.585    -130.006     -61.887
  O      187.964    -129.380     -62.870
  N      185.044    -129.708     -62.029
  C      184.113    -130.069     -61.166
  N      184.610    -130.849     -60.152
  O      179.998    -135.747     -60.461
  O      177.707    -135.105     -59.518
  H      182.705    -132.191     -56.956
  H      179.720    -136.568     -60.011
  H      189.439    -130.576     -61.295
  H      183.066    -129.814     -61.241
  H      184.597    -132.073     -58.509
  H      183.003    -129.720     -58.356
  H      190.070    -131.930     -59.495
  H      181.385    -130.520     -59.958
  H      188.841    -132.552     -58.440
  H      181.585    -133.249     -58.603
  H      180.799    -132.330     -61.388
  H      181.194    -134.002     -61.033
  P      179.203    -130.059     -58.633
  C      178.372    -131.462     -60.654
  O      178.083    -130.928     -59.376
  O      179.862    -129.193     -59.809
  O      178.708    -129.183     -57.532
  H      179.637    -128.251     -59.686
  H      177.809    -132.389     -60.785
  H      179.439    -131.675     -60.773
  H      178.062    -130.747     -61.421
  H      178.430    -135.550     -63.816
  H      178.434    -136.628     -62.441
  H      179.866    -135.707     -62.833

 3  4  5  6  7  8  9  10  11  12  23  26  30  31 0
 6-311+G(2d,p)
 ****
 33  35  36  37  38 0
 6-311+G(2d,p)
 ****
 1  2  13  14  15  16  17  18  19  20  21  22  24  25 0
 3-21G
 ****
 27  28  29  32  34  39  40  41  42  43  44  45  46  47  48  49 0
 3-21G
 ****


