%nproc=1
%NoSave
%Mem=1900MB
#P OB98/GEN NMR

erre ene a

0 1
  C      -25.281       5.486      84.746
  O      -26.181       6.505      84.346
  P      -25.968       7.983      84.923
  C      -28.203       8.099      86.246
  O      -26.785       8.091      86.299
  C      -28.786       8.459      87.614
  O      -28.273       7.530      88.617
  C      -28.439       9.879      88.088
  O      -29.555      10.366      88.849
  C      -27.260       9.637      89.012
  O      -27.029      10.708      89.915
  C      -27.700       8.327      89.674
  N      -26.602       7.630      90.341
  C      -26.521       7.741      91.726
  O      -27.313       8.386      92.412
  N      -25.447       7.127      92.311
  C      -24.420       6.507      91.659
  O      -23.427       6.079      92.234
  C      -24.559       6.420      90.197
  C      -25.625       6.975      89.614
  O      -26.805       8.896      83.911
  O      -24.543       8.416      85.017
  H      -26.899      11.516      89.385
  H      -26.212       9.321      83.264
  H      -25.379       7.186      93.315
  H      -23.773       5.917      89.649
  H      -25.742       6.944      88.536
  H      -28.502       8.521      90.398
  H      -26.352       9.498      88.414
  H      -28.205      10.569      87.272
  H      -29.874       8.326      87.577
  H      -28.557       7.109      85.955
  H      -28.538       8.812      85.485
  P      -30.200      11.774      88.421
  C      -29.186      12.786      90.607
  O      -29.398      12.907      89.217
  O      -31.612      11.697      89.176
  O      -30.321      11.954      86.943
  H      -31.534      11.353      90.081
  H      -29.051      11.743      90.904
  H      -30.041      13.206      91.142
  H      -28.290      13.349      90.880
  H      -25.556       4.564      84.278
  H      -25.321       5.372      85.809
  H      -24.287       5.753      84.453

 3  4  5  6  7  8  9  10  11  12  13  23  28  29  30  31  32 0
 6-311+G(2d,p)
 ****
 33  34 0
 6-311+G(2d,p)
 ****
 1  2  14  15  16  17  18  19  20  21  22  24  25  26 0
 3-21G
 ****
 27  35  36  37  38  39  40  41  42  43  44  45 0
 3-21G
 ****


