%nproc=1
%NoSave
%Mem=1900MB
#P OB98/GEN NMR

erre ene a

0 1
  C      200.890    -890.720     234.350
  O      200.458    -892.010     234.754
  P      199.195    -892.670     233.977
  C      200.383    -894.960     233.564
  O      199.848    -893.770     233.001
  C      200.524    -896.060     232.501
  O      199.271    -896.180     231.761
  C      201.659    -895.810     231.483
  O      202.233    -897.110     231.177
  C      200.910    -895.270     230.284
  O      201.659    -895.450     229.076
  C      199.618    -896.090     230.349
  N      198.515    -895.500     229.588
  C      198.342    -895.960     228.296
  O      199.106    -896.770     227.744
  N      197.291    -895.430     227.592
  C      196.454    -894.430     228.043
  O      195.527    -893.970     227.396
  C      196.761    -893.890     229.394
  C      197.785    -894.450     230.066
  O      198.810    -891.480     232.997
  O      198.122    -893.140     234.898
  H      199.568    -890.960     232.650
  H      201.801    -896.410     228.935
  H      197.125    -895.780     226.673
  H      196.189    -893.060     229.745
  H      198.044    -894.050     231.057
  H      199.783    -897.110     229.979
  H      200.709    -894.180     230.416
  H      202.427    -895.130     231.862
  H      200.715    -897.020     233.023
  H      199.723    -895.350     234.372
  H      201.361    -894.720     234.034
  P      203.315    -897.710     232.204
  C      201.628    -899.090     233.653
  O      202.549    -898.040     233.589
  O      204.150    -896.390     232.568
  O      204.176    -898.800     231.634
  H      203.588    -895.620     232.791
  H      201.406    -899.300     234.719
  H      202.042    -900.000     233.216
  H      200.701    -898.830     233.145
  H      201.724    -890.420     234.949
  H      200.090    -890.020     234.476
  H      201.181    -890.747     233.321

 3  4  5  6  7  8  9  10  11  12  13  24  28  29  30  31  32 0
 6-311+G(2d,p)
 ****
 33  34 0
 6-311+G(2d,p)
 ****
 1  2  14  15  16  17  18  19  20  21  22  23  25  26  27 0
 3-21G
 ****
 35  36  37  38  39  40  41  42  43  44  45 0
 3-21G
 ****


