%nproc=1
%NoSave
%Mem=1900MB
#P OB98/GEN NMR

erre ene a

0 1
  C      327.796    -892.580     -48.626
  O      326.755    -892.090     -49.440
  H      327.600    -892.270     -47.592
  H      328.755    -892.150     -48.940
  H      327.853    -893.670     -48.666
  P      326.619    -892.650     -50.934
  C      324.625    -894.230     -50.474
  O      325.993    -894.120     -50.826
  C      324.016    -895.530     -51.012
  O      323.981    -895.470     -52.462
  C      324.870    -896.750     -50.637
  O      324.088    -897.940     -50.540
  C      325.822    -896.860     -51.813
  O      326.362    -898.180     -51.970
  C      324.914    -896.440     -52.967
  N      328.306    -897.240     -56.697
  C      327.983    -898.050     -55.634
  N      328.640    -899.230     -55.548
  N      327.103    -897.720     -54.721
  C      326.578    -896.490     -54.891
  C      326.839    -895.580     -55.895
  C      327.784    -895.970     -56.927
  O      328.135    -895.290     -57.872
  N      326.131    -894.410     -55.731
  C      325.429    -894.620     -54.626
  N      325.651    -895.870     -54.094
  O      328.135    -892.940     -51.371
  O      325.927    -891.740     -51.912
  H      326.869    -898.200     -52.805
  H      328.212    -892.950     -52.349
  H      328.970    -897.570     -57.394
  H      324.744    -893.900     -54.186
  H      324.337    -897.290     -53.359
  H      326.659    -896.190     -51.658
  H      329.447    -899.430     -56.117
  H      325.428    -896.600     -49.714
  H      328.637    -899.690     -54.621
  H      322.976    -895.620     -50.674
  H      324.120    -893.360     -50.898
  H      324.502    -894.160     -49.391
  P      323.751    -898.520     -49.079
  C      321.343    -897.420     -49.143
  O      322.541    -897.720     -48.438
  O      325.016    -898.060     -48.192
  O      323.548    -900.000     -49.032
  H      325.518    -898.840     -47.886
  H      320.680    -896.876     -48.504
  H      320.873    -898.330     -49.452
  H      321.574    -896.828     -50.004

 6  7  8  9  10  11  12  13  14  15  26  29  33  34 0
 6-311+G(2d,p)
 ****
 36  38  39  40  41 0
 6-311+G(2d,p)
 ****
 1  2  3  4  5  16  17  18  19  20  21  22  23  24  25 0
 3-21G
 ****
 27  28  30  31  32  35  37  42  43  44  45  46  47 0
 3-21G
 ****
 48  49 0
 3-21G
 ****


