%nproc=1
%NoSave
%Mem=1900MB
#P OB98/GEN NMR

erre ene a

0 1
  C      970.810     503.153     812.674
  O      971.710     502.074     812.540
  H      970.733     503.669     811.713
  H      971.170     503.864     813.425
  H      969.814     502.788     812.949
  P      972.078     501.219     813.843
  C      971.880     498.928     812.665
  O      971.372     499.791     813.674
  C      971.212     497.543     812.749
  O      971.670     496.876     813.961
  C      969.680     497.596     812.814
  O      969.183     496.395     812.202
  C      969.437     497.572     814.310
  O      968.098     497.281     814.611
  C      970.505     496.566     814.747
  N      970.769     496.607     816.176
  C      970.020     495.745     816.977
  O      969.174     495.007     816.464
  N      970.210     495.758     818.329
  C      971.047     496.606     818.853
  N      971.182     496.587     820.205
  C      971.820     497.581     818.048
  C      971.638     497.524     816.726
  O      971.828     501.892     815.150
  O      973.636     500.880     813.648
  H      967.957     497.229     815.585
  H      974.169     501.443     814.242
  H      972.484     498.283     818.530
  H      972.156     498.200     816.055
  H      970.201     495.537     814.480
  H      969.652     498.559     814.749
  H      969.256     498.466     812.313
  H      971.556     496.934     811.902
  H      970.623     495.907     820.716
  H      972.959     498.836     812.814
  H      971.779     497.210     820.719
  H      971.699     499.358     811.670
  P      968.731     496.315     810.674
  C      970.904     494.975     810.309
  O      969.986     495.915     809.758
  O      967.999     497.529     810.190
  O      967.781     495.027     810.579
  H      967.111     495.174     809.885
  H      971.691     494.792     809.607
  H      970.393     494.059     810.519
  H      971.318     495.369     811.214

 6  7  8  9  10  11  12  13  14  15  16  26  30  31  32  33  35 0
 6-311+G(2d,p)
 ****
 37  38 0
 6-311+G(2d,p)
 ****
 1  2  3  4  5  17  18  19  20  21  22  23  24  25 0
 3-21G
 ****
 27  28  29  34  36  39  40  41  42  43  44  45  46 0
 3-21G
 ****


