%nproc=1
%NoSave
%Mem=1900MB
#P OB98/GEN NMR

erre ene a

0 1
  C       10.608    -136.122    -131.339
  O        9.558    -135.190    -131.546
  P        8.055    -135.692    -131.296
  C        6.744    -136.394    -129.179
  O        8.016    -136.291    -129.806
  C        6.769    -137.438    -128.069
  O        6.780    -138.762    -128.669
  C        7.990    -137.342    -127.140
  O        7.564    -137.511    -125.781
  C        8.818    -138.559    -127.517
  O        9.653    -138.988    -126.447
  C        7.711    -139.542    -127.893
  N        7.567    -144.585    -128.097
  C        6.794    -143.710    -127.361
  N        5.895    -144.263    -126.517
  N        6.894    -142.410    -127.439
  C        7.814    -141.996    -128.346
  C        8.632    -142.765    -129.139
  C        8.552    -144.202    -128.997
  O        9.271    -145.030    -129.555
  N        9.421    -141.984    -129.946
  C        9.085    -140.747    -129.639
  N        8.148    -140.701    -128.637
  O        7.952    -136.988    -132.230
  O        6.990    -134.704    -131.625
  H        9.091    -139.048    -125.651
  H        7.202    -136.890    -132.849
  H        7.460    -145.578    -127.985
  H        9.513    -139.859    -130.087
  H        7.192    -139.898    -126.994
  H        9.450    -138.312    -128.376
  H        5.740    -145.255    -126.435
  H        8.556    -136.411    -127.235
  H        5.303    -143.637    -125.986
  H        5.839    -137.356    -127.493
  H        5.998    -136.682    -129.926
  H        6.473    -135.415    -128.769
  P        8.458    -136.776    -124.666
  C        9.283    -134.323    -124.382
  O        8.757    -135.314    -125.243
  O        9.868    -137.524    -124.772
  O        7.880    -136.835    -123.292
  H       10.355    -137.453    -123.930
  H        9.586    -134.735    -123.415
  H        8.524    -133.555    -124.217
  H       10.154    -133.865    -124.859
  H       11.547    -135.652    -131.542
  H       10.478    -136.957    -131.995
  H       10.590    -136.460    -130.324

 3  4  5  6  7  8  9  10  11  12  23  26  30  31  33  0
 6-311+G(2d,p)
 ****
 35  36  37  38 0
 6-311+G(2d,p)
 ****
 1  2  13  14  15  16  17  18  19  20  21  22  24  25  27  28  29 0
 3-21G
 ****
 32  34  39  40  41  42  43  44  45  46  47  48  49 0
 3-21G
 ****


