%nproc=1
%NoSave
%Mem=1900MB
#P OB98/GEN NMR

erre ene a

0 1
  C     -108.172     209.644    -232.416
  O     -108.893     209.602    -233.632
  P     -108.477     210.525    -234.875
  C     -109.718     212.558    -233.926
  O     -108.468     212.048    -234.378
  C     -110.178     213.739    -234.777
  O     -109.276     214.859    -234.575
  C     -110.234     213.444    -236.282
  O     -111.379     214.128    -236.805
  C     -108.956     214.079    -236.802
  O     -109.021     214.368    -238.193
  C     -108.844     215.295    -235.879
  N     -107.493     215.844    -235.844
  C     -107.346     217.133    -235.336
  O     -108.341     217.810    -235.067
  N     -106.075     217.629    -235.163
  C     -105.064     216.966    -235.635
  N     -103.818     217.460    -235.383
  C     -105.209     215.712    -236.399
  C     -106.434     215.188    -236.428
  O     -109.251     210.283    -236.129
  O     -106.920     210.210    -235.096
  H     -106.775     209.959    -236.029
  H     -109.118     213.530    -238.691
  H     -104.351     215.265    -236.882
  H     -106.637     214.255    -236.941
  H     -109.538     216.086    -236.200
  H     -108.114     213.392    -236.641
  H     -110.314     212.376    -236.505
  H     -111.166     214.053    -234.416
  H     -103.753     218.299    -234.822
  H     -109.596     212.887    -232.892
  H     -102.984     216.870    -235.424
  H     -110.471     211.760    -233.934
  P     -111.988     213.630    -238.212
  C     -110.943     215.441    -239.746
  O     -110.980     214.078    -239.371
  O     -113.212     214.654    -238.414
  O     -112.494     212.221    -238.256
  H     -113.882     214.238    -238.989
  H     -110.255     215.549    -240.590
  H     -110.575     216.050    -238.916
  H     -111.930     215.784    -240.060
  H     -108.607     208.958    -231.720
  H     -108.211     210.634    -232.012
  H     -107.153     209.372    -232.596

 3  4  5  6  7  8  9  10  11  12  13  24  27  28  29  30  32 0
 6-311+G(2d,p)
 ****
 34  35 0
 6-311+G(2d,p)
 ****
 1  2  14  15  16  17  18  19  20  21  22  23  25  26 0
 3-21G
 ****
 31  33  36  37  38  39  40  41  42  43  44  45  46 0
 3-21G
 ****


