%nproc=1
%NoSave
%Mem=1900MB
#P OB98/GEN NMR

erre ene a

0 1
  C      153.776     612.371    -516.744
  O      153.784     611.084    -517.329
  H      153.849     612.260    -515.655
  H      152.839     612.878    -516.981
  H      154.622     612.957    -517.099
  P      153.865     611.015    -518.931
  C      151.255     611.106    -519.226
  O      152.511     611.709    -519.457
  C      150.127     611.950    -519.840
  O      150.414     612.143    -521.254
  C      148.740     611.301    -519.729
  O      147.776     612.340    -519.528
  C      148.539     610.675    -521.094
  O      147.161     610.484    -521.393
  C      149.274     611.682    -522.002
  N      149.668     611.094    -523.278
  C      148.668     610.979    -524.258
  O      147.518     611.360    -524.011
  N      148.984     610.411    -525.461
  C      150.176     609.937    -525.663
  N      150.417     609.361    -526.868
  C      151.238     609.988    -524.643
  C      150.935     610.586    -523.494
  O      153.629     609.460    -519.210
  O      155.129     611.568    -519.504
  H      147.089     610.086    -522.298
  H      152.908     609.079    -518.685
  H      152.220     609.566    -524.853
  H      151.656     610.679    -522.698
  H      148.632     612.556    -522.203
  H      149.035     609.697    -521.141
  H      148.681     610.570    -518.907
  H      150.144     612.935    -519.373
  H      149.647     609.326    -527.531
  H      151.082     610.989    -518.150
  H      151.284     608.910    -527.116
  H      151.267     610.109    -519.669
  P      147.034     612.475    -518.120
  C      145.018     611.172    -519.082
  O      145.929     611.313    -517.995
  O      146.570     613.836    -517.749
  O      148.166     611.967    -517.083
  H      148.131     612.550    -516.301
  H      144.339     610.370    -518.877
  H      145.562     610.958    -519.978
  H      144.468     612.081    -519.207

 6  7  8  9  10  11  12  13  14  15  16  26  30  31  32  33  35 0
 6-311+G(2d,p)
 ****
 37  38 0
 6-311+G(2d,p)
 ****
 1  2  3  4  5  17  18  19  20  21  22  23  24  25 0
 3-21G
 ****
 27  28  29  34  36  39  40  41  42  43  44  45  46 0
 3-21G
 ****


