%nproc=1
%NoSave
%Mem=1900MB
#P OB98/GEN NMR

erre ene a

0 1
  C       65.103      -5.943     115.169
  O       65.626      -6.475     113.967
  H       64.326      -6.617     115.539
  H       64.662      -4.958     115.000
  H       65.893      -5.874     115.921
  P       66.582      -5.540     113.080
  C       65.045      -5.330     111.020
  O       66.236      -5.903     111.552
  C       64.834      -5.744     109.564
  O       63.540      -5.312     109.094
  C       65.827      -5.129     108.592
  O       67.156      -5.569     108.748
  C       65.127      -5.334     107.258
  O       65.333      -6.644     106.731
  C       63.642      -5.152     107.660
  N       63.102      -3.871     107.220
  C       62.247      -3.914     106.127
  O       61.961      -4.950     105.526
  N       61.748      -2.709     105.713
  C       62.053      -1.492     106.247
  O       61.587      -0.443     105.815
  C       62.994      -1.505     107.377
  C       63.468      -2.677     107.809
  O       68.045      -5.614     113.405
  O       65.958      -4.078     113.254
  H       64.867      -7.265     107.323
  H       66.594      -3.380     112.959
  H       61.113      -2.720     104.929
  H       63.268      -0.557     107.818
  H       64.162      -2.713     108.644
  H       63.029      -5.948     107.216
  H       65.465      -4.624     106.500
  H       65.850      -4.045     108.764
  H       64.855      -6.838     109.517
  H       65.147      -4.240     111.074
  H       64.189      -5.636     111.629
  P       68.431      -4.686     108.381
  C       68.523      -5.715     105.980
  O       69.217      -5.400     107.180
  O       69.230      -4.155     109.526
  O       67.751      -3.426     107.634
  H       68.292      -2.639     107.848
  H       69.195      -6.184     105.292
  H       68.136      -4.817     105.545
  H       67.715      -6.381     106.200

 6  7  8  9  10  11  12  13  14  15  16  26  31  32  33  34  35 0
 6-311+G(2d,p)
 ****
 36  37 0
 6-311+G(2d,p)
 ****
 1  2  3  4  5  17  18  19  20  21  22  23  24  25 0
 3-21G
 ****
 27  28  29  30  38  39  40  41  42  43  44  45 0
 3-21G
 ****


