%nproc=1
%NoSave
%Mem=1900MB
#P OB98/GEN NMR

erre ene a

0 1
  C       61.093    -216.603     -83.847
  O       62.487    -216.809     -83.712
  H       60.646    -216.553     -82.850
  H       60.645    -217.437     -84.393
  H       60.894    -215.664     -84.371
  P       63.359    -216.677     -85.049
  C       64.314    -219.096     -84.707
  O       63.667    -218.169     -85.568
  C       64.772    -220.317     -85.499
  O       65.472    -221.248     -84.649
  C       63.637    -221.146     -86.079
  O       63.009    -220.516     -87.177
  C       64.381    -222.418     -86.456
  O       65.006    -222.307     -87.741
  C       65.446    -222.520     -85.338
  N       65.179    -223.630     -84.440
  C       65.659    -224.876     -84.867
  O       66.276    -224.968     -85.929
  N       65.393    -225.979     -84.101
  C       64.686    -225.860     -83.018
  N       64.431    -227.000     -82.321
  C       64.160    -224.567     -82.535
  C       64.441    -223.501     -83.286
  O       64.775    -216.186     -84.490
  O       62.772    -215.789     -86.093
  H       65.434    -223.172     -87.916
  H       65.106    -216.712     -83.746
  H       63.589    -224.517     -81.619
  H       64.096    -222.514     -83.005
  H       66.447    -222.663     -85.770
  H       63.711    -223.279     -86.506
  H       62.911    -221.396     -85.293
  H       65.459    -219.976     -86.285
  H       64.761    -227.871     -82.721
  H       63.645    -219.399     -83.894
  H       63.829    -227.039     -81.512
  H       65.172    -218.588     -84.257
  P       61.423    -220.306     -87.218
  C       61.063    -222.274     -88.841
  O       60.774    -221.740     -87.553
  O       60.948    -219.199     -88.096
  O       61.040    -220.122     -85.674
  H       61.271    -220.876     -85.101
  H       60.582    -223.223     -88.950
  H       62.121    -222.396     -88.947
  H       60.704    -221.604     -89.594

 6  7  8  9  10  11  12  13  14  15  16  26  30  31  32  33  35 0
 6-311+G(2d,p)
 ****
 37  38 0
 6-311+G(2d,p)
 ****
 1  2  3  4  5  17  18  19  20  21  22  23  24  25 0
 3-21G
 ****
 27  28  29  34  36  39  40  41  42  43  44  45  46 0
 3-21G
 ****


