%nproc=1
%NoSave
%Mem=1900MB
#P OB98/GEN NMR

erre ene a

0 1
  C      301.574    -749.693    1262.316
  O      300.448    -750.087    1261.565
  H      302.191    -750.577    1262.511
  H      301.268    -749.262    1263.272
  H      302.164    -748.963    1261.751
  P      299.316    -748.995    1261.246
  C      299.936    -748.704    1258.747
  O      299.870    -748.099    1260.029
  C      300.708    -747.822    1257.766
  O      301.909    -747.317    1258.428
  C      301.170    -748.561    1256.497
  O      301.217    -747.597    1255.425
  C      302.580    -748.990    1256.898
  O      303.325    -749.402    1255.775
  C      303.046    -747.739    1257.644
  N      304.215    -747.994    1258.469
  C      305.226    -747.042    1258.407
  O      305.125    -746.052    1257.679
  N      306.365    -747.227    1259.165
  C      306.492    -748.316    1259.851
  N      307.650    -748.458    1260.573
  C      305.477    -749.384    1259.904
  C      304.368    -749.157    1259.200
  O      298.816    -748.215    1262.423
  O      298.136    -749.835    1260.570
  H      302.787    -750.008    1255.208
  H      297.407    -749.954    1261.199
  H      305.644    -750.274    1260.490
  H      303.560    -749.879    1259.168
  H      303.279    -746.923    1256.941
  H      302.534    -749.838    1257.573
  H      300.520    -749.393    1256.225
  H      300.095    -746.941    1257.505
  H      308.327    -747.721    1260.496
  H      298.905    -748.836    1258.392
  H      307.871    -749.274    1261.131
  H      300.416    -749.694    1258.817
  P      299.916    -747.093    1254.648
  C      300.250    -744.604    1255.252
  O      299.378    -745.736    1255.319
  O      298.850    -748.146    1254.486
  O      300.438    -746.612    1253.219
  H      299.744    -746.755    1252.547
  H      299.785    -743.767    1255.729
  H      300.448    -744.366    1254.228
  H      301.170    -744.832    1255.749

 6  7  8  9  10  11  12  13  14  15  16  26  30  31  32  33  35 0
 6-311+G(2d,p)
 ****
 37  38 0
 6-311+G(2d,p)
 ****
 1  2  3  4  5  17  18  19  20  21  22  23  24  25 0
 3-21G
 ****
 27  28  29  34  36  39  40  41  42  43  44  45  46 0
 3-21G
 ****


