%nproc=1
%NoSave
%Mem=1900MB
#P OB98/GEN NMR

erre ene a

0 1
  C     -402.318    -672.490    -972.836
  O     -403.732    -672.632    -972.811
  P     -404.464    -672.627    -971.382
  C     -406.958    -672.618    -970.666
  O     -405.998    -672.281    -971.668
  C     -408.138    -671.652    -970.728
  O     -407.750    -670.347    -970.255
  C     -408.694    -671.421    -972.123
  O     -409.573    -672.461    -972.532
  C     -409.473    -670.131    -971.941
  O     -410.742    -670.401    -971.320
  C     -408.558    -669.358    -970.951
  N     -408.435    -665.407    -974.110
  C     -409.513    -666.017    -973.486
  N     -410.736    -665.540    -973.803
  N     -409.407    -667.000    -972.646
  C     -408.119    -667.383    -972.417
  C     -406.974    -666.846    -972.974
  C     -407.109    -665.768    -973.919
  O     -406.197    -665.218    -974.539
  N     -405.850    -667.497    -972.509
  C     -406.329    -668.411    -971.672
  N     -407.693    -668.401    -971.629
  O     -403.907    -671.291    -970.693
  O     -404.203    -673.833    -970.546
  H     -410.535    -670.855    -970.474
  H     -404.056    -671.316    -969.732
  H     -408.576    -664.655    -974.756
  H     -405.711    -669.094    -971.106
  H     -409.143    -668.820    -970.199
  H     -409.668    -669.612    -972.875
  H     -410.897    -664.822    -974.511
  H     -407.894    -671.268    -972.854
  H     -411.560    -666.010    -973.429
  H     -408.931    -672.031    -970.053
  H     -406.498    -672.566    -969.680
  H     -407.302    -673.640    -970.827
  P     -410.077    -672.432    -974.062
  C     -410.723    -674.296    -975.746
  O     -410.108    -673.966    -974.527
  O     -408.814    -671.812    -974.841
  O     -411.322    -671.643    -974.288
  H     -409.108    -671.377    -975.648
  H     -410.420    -675.322    -976.034
  H     -410.408    -673.598    -976.547
  H     -411.805    -674.263    -975.645
  H     -401.975    -672.511    -973.849
  H     -401.869    -673.294    -972.291
  H     -402.045    -671.558    -972.387

 3  4  5  6  7  8  9  10  11  12  23  26  30  31 0
 6-311+G(2d,p)
 ****
 33  35  36  37  38 0
 6-311+G(2d,p)
 ****
 1  2  13  14  15  16  17  18  19  20  21  22  24  25 0
 3-21G
 ****
 27  28  29  32  34  39  40  41  42  43  44  45  46  47  48  49 0
 3-21G
 ****


