%nproc=1
%NoSave
%Mem=1900MB
#P OB98/GEN NMR

erre ene a

0 1
  C      396.701    -431.981     311.088
  O      398.016    -432.096     310.575
  H      395.996    -432.239     310.297
  H      396.514    -430.952     311.411
  H      396.561    -432.665     311.931
  P      399.211    -431.771     311.597
  C      399.446    -434.291     312.225
  O      399.218    -432.960     312.670
  C      399.040    -435.298     313.309
  O      397.580    -435.362     313.353
  C      399.538    -436.733     313.047
  O      399.709    -437.377     314.322
  C      398.353    -437.346     312.320
  O      398.458    -438.749     312.274
  C      397.214    -436.744     313.147
  N      393.620    -439.908     311.328
  C      394.783    -440.146     311.989
  N      395.680    -439.252     312.451
  C      395.277    -437.996     312.194
  C      394.119    -437.592     311.546
  C      393.268    -438.625     311.103
  N      392.088    -438.387     310.425
  N      394.044    -436.214     311.476
  C      395.145    -435.787     312.067
  N      395.925    -436.824     312.512
  O      398.657    -430.515     312.421
  O      400.535    -431.483     310.966
  H      397.621    -439.150     311.936
  H      398.985    -429.687     312.026
  H      395.013    -441.192     312.159
  H      395.428    -434.747     312.195
  H      397.126    -437.227     314.135
  H      398.306    -436.996     311.287
  H      400.478    -436.768     312.496
  H      399.372    -434.923     314.286
  H      400.512    -434.405     311.999
  H      398.862    -434.481     311.313
  H      391.542    -439.176     310.121
  H      391.817    -437.435     310.226
  P      401.021    -437.046     315.195
  C      399.736    -435.587     316.947
  O      400.789    -435.673     315.991
  O      402.069    -436.596     314.058
  O      401.568    -438.190     315.999
  H      402.980    -436.788     314.363
  H      399.726    -434.608     317.379
  H      399.892    -436.315     317.716
  H      398.800    -435.774     316.464

 6  7  8  9  10  11  12  13  14  15  25  28  32  33  34  35 0
 6-311+G(2d,p)
 ****
 36  37  40 0
 6-311+G(2d,p)
 ****
 1  2  3  4  5  16  17  18  19  20  21  22  23  24 0
 3-21G
 ****
 26  27  29  30  31  38  39 41  42  43  44  45  46  47  48 0
 3-21G
 ****


