%nproc=1
%NoSave
%Mem=1900MB
#P OB98/GEN NMR

erre ene a

0 1
  C      -65.841     -74.570      72.646
  O      -65.026     -73.509      73.095
  H      -66.680     -74.681      73.338
  H      -65.267     -75.501      72.638
  H      -66.236     -74.371      71.647
  P      -63.913     -72.920      72.107
  C      -63.888     -71.150      70.229
  O      -64.678     -72.037      71.008
  C      -64.754     -70.033      69.633
  O      -65.761     -70.626      68.774
  C      -65.499     -69.257      70.724
  O      -65.772     -67.913      70.337
  C      -66.813     -70.015      70.836
  O      -67.868     -69.229      71.389
  C      -67.047     -70.430      69.385
  N      -71.662     -72.415      68.525
  C      -71.308     -71.104      68.772
  N      -72.318     -70.202      68.789
  N      -70.081     -70.715      69.005
  C      -69.187     -71.732      69.028
  C      -69.420     -73.072      68.820
  C      -70.777     -73.485      68.530
  O      -71.148     -74.636      68.326
  N      -68.264     -73.804      68.933
  C      -67.336     -72.911      69.211
  N      -67.843     -71.636      69.255
  O      -63.448     -74.197      71.259
  O      -62.750     -72.247      72.770
  H      -68.699     -69.722      71.258
  H      -62.561     -74.051      70.885
  H      -72.616     -72.656      68.323
  H      -66.289     -73.131      69.373
  H      -67.562     -69.634      68.834
  H      -66.661     -70.866      71.504
  H      -73.284     -70.490      68.812
  H      -64.969     -69.252      71.673
  H      -72.128     -69.318      69.268
  H      -64.142     -69.380      69.000
  H      -63.428     -71.744      69.437
  H      -63.080     -70.732      70.831
  P      -65.131     -66.724      71.197
  C      -62.776     -65.519      71.273
  O      -63.716     -66.313      70.583
  O      -64.759     -67.418      72.586
  O      -66.032     -65.543      71.384
  H      -65.288     -67.035      73.310
  H      -61.909     -65.379      70.661
  H      -62.495     -66.008      72.182
  H      -63.210     -64.568      71.499

 6  7  8  9  10  11  12  13  14  15  26  29  33  34 0
 6-311+G(2d,p)
 ****
 36  38  39  40  41 0
 6-311+G(2d,p)
 ****
 1  2  3  4  5  16  17  18  19  20  21  22  23  24  25 0
 3-21G
 ****
 27  28  30  31  32  35  37  42  43  44  45  46  47 0
 3-21G
 ****
 48  49 0
 3-21G
 ****


