%nproc=1
%NoSave
%Mem=1900MB
#P OB98/GEN NMR

erre ene a

0 1
  C      -39.934     199.851    -183.767
  O      -39.177     200.940    -183.282
  H      -40.762     199.668    -183.077
  H      -39.320     198.950    -183.823
  H      -40.348     200.082    -184.753
  P      -37.858     201.377    -184.081
  C      -38.260     203.920    -184.261
  O      -37.519     202.879    -183.632
  C      -38.607     205.012    -183.244
  O      -39.722     204.537    -182.450
  C      -37.439     205.323    -182.295
  O      -37.114     206.711    -182.245
  C      -37.856     204.648    -180.993
  O      -37.302     205.221    -179.828
  C      -39.388     204.687    -181.057
  N      -40.039     203.651    -180.255
  C      -40.137     203.876    -178.887
  O      -39.743     204.882    -178.301
  N      -40.739     202.875    -178.165
  C      -41.230     201.708    -178.667
  O      -41.763     200.850    -177.972
  C      -41.074     201.517    -180.118
  C      -40.496     202.486    -180.834
  O      -37.894     201.160    -185.557
  O      -36.689     200.524    -183.393
  H      -37.306     206.194    -179.943
  H      -36.455     199.770    -183.964
  H      -40.826     203.029    -177.174
  H      -41.444     200.598    -180.547
  H      -40.368     202.379    -181.908
  H      -39.761     205.654    -180.719
  H      -37.523     203.603    -181.027
  H      -36.512     204.861    -182.653
  H      -38.941     205.905    -183.785
  H      -39.175     203.481    -184.673
  H      -37.672     204.349    -185.080
  P      -35.832     207.316    -181.511
  C      -34.827     208.691    -183.506
  O      -35.452     208.697    -182.229
  O      -34.723     206.357    -181.254
  O      -36.413     207.785    -180.079
  H      -35.689     207.667    -179.430
  H      -34.652     209.698    -183.822
  H      -35.464     208.201    -184.213
  H      -33.895     208.169    -183.445

 6  7  8  9  10  11  12  13  14  15  16  26  31  32  33  34  35 0
 6-311+G(2d,p)
 ****
 36  37 0
 6-311+G(2d,p)
 ****
 1  2  3  4  5  17  18  19  20  21  22  23  24  25 0
 3-21G
 ****
 27  28  29  30  38  39  40  41  42  43  44  45 0
 3-21G
 ****


