%nproc=1
%NoSave
%Mem=1900MB
#P OB98/GEN NMR

erre ene a

0 1
  C      232.597      22.178     134.229
  O      233.061      20.840     134.331
  P      232.227      19.682     133.598
  C      231.303      18.733     135.870
  O      231.030      19.277     134.589
  C      230.173      19.077     136.847
  O      230.284      18.218     138.015
  C      230.185      20.532     137.345
  O      228.818      20.936     137.507
  C      230.873      20.420     138.694
  O      230.574      21.508     139.555
  C      230.332      19.069     139.180
  N      231.151      18.455     140.227
  C      230.944      18.863     141.543
  O      230.124      19.729     141.872
  N      231.739      18.264     142.486
  C      232.736      17.368     142.249
  O      233.427      16.876     143.131
  C      232.943      17.007     140.840
  C      232.151      17.551     139.908
  O      233.250      18.456     133.694
  O      231.796      20.038     132.215
  H      233.757      18.452     134.524
  H      229.628      21.462     139.783
  H      231.575      18.520     143.452
  H      233.742      16.309     140.607
  H      232.286      17.299     138.864
  H      229.303      19.181     139.538
  H      231.959      20.390     138.547
  H      230.695      21.210     136.650
  H      229.216      18.847     136.361
  H      232.239      19.146     136.244
  H      231.423      17.645     135.781
  P      228.496      22.514     137.552
  C      227.971      22.518     140.119
  O      228.747      23.013     139.053
  O      226.887      22.473     137.454
  O      229.120      23.318     136.456
  H      226.489      21.840     138.075
  H      228.498      22.707     141.060
  H      227.803      21.441     140.025
  H      227.008      23.037     140.148
  H      233.256      22.826     134.767
  H      231.613      22.247     134.643
  H      232.572      22.469     133.200

 3  4  5  6  7  8  9  10  11  12  13  24  28  29  30  31  32 0
 6-311+G(2d,p)
 ****
 33  34 0
 6-311+G(2d,p)
 ****
 1  2  14  15  16  17  18  19  20  21  22  23  25  26  27 0
 3-21G
 ****
 35  36  37  38  39  40  41  42  43  44  45 0
 3-21G
 ****


