%nproc=1
%NoSave
%Mem=1900MB
#P OB98/GEN NMR

erre ene a

0 1
  C      795.324    -102.583    -838.459
  O      795.110    -101.334    -837.844
  H      796.298    -102.968    -838.133
  H      795.341    -102.466    -839.543
  H      794.551    -103.303    -838.175
  P      793.624    -100.743    -837.783
  C      793.383     -99.719    -835.428
  O      793.636     -99.471    -836.799
  C      793.843     -98.554    -834.535
  O      795.276     -98.427    -834.571
  C      793.285     -97.209    -835.027
  O      791.970     -96.898    -834.580
  C      794.297     -96.225    -834.450
  O      793.979     -95.884    -833.089
  C      795.614     -97.029    -834.509
  N      799.938     -94.818    -836.085
  C      799.422     -94.919    -834.798
  N      800.125     -94.288    -833.823
  N      798.322     -95.553    -834.512
  C      797.677     -96.047    -835.595
  C      798.085     -95.995    -836.909
  C      799.338     -95.341    -837.215
  O      799.832     -95.223    -838.333
  N      797.169     -96.613    -837.747
  C      796.183     -96.954    -836.934
  N      796.459     -96.660    -835.620
  O      792.823    -101.840    -836.922
  O      792.964    -100.523    -839.112
  H      794.594     -95.190    -832.799
  H      791.878    -101.822    -837.156
  H      800.809     -94.356    -836.237
  H      795.267     -97.448    -837.252
  H      796.198     -96.896    -833.588
  H      794.324     -95.295    -835.024
  H      800.920     -93.696    -834.017
  H      793.324     -97.151    -836.120
  H      799.655     -94.110    -832.937
  H      793.557     -98.757    -833.499
  H      793.934    -100.626    -835.159
  H      792.326     -99.930    -835.266
  P      790.960     -96.126    -835.546
  C      789.031     -97.682    -834.760
  O      789.482     -96.363    -834.969
  O      790.990     -97.013    -836.886
  O      791.310     -94.705    -835.819
  H      791.623     -96.630    -837.528
  H      788.033     -97.661    -834.375
  H      789.674     -98.172    -834.058
  H      789.044     -98.215    -835.688

 6  7  8  9  10  11  12  13  14  15  26  29  33  34 0
 6-311+G(2d,p)
 ****
 36  38  39  40  41 0
 6-311+G(2d,p)
 ****
 1  2  3  4  5  16  17  18  19  20  21  22  23  24  25 0
 3-21G
 ****
 27  28  30  31  32  35  37  42  43  44  45  46  47 0
 3-21G
 ****
 48  49 0
 3-21G
 ****


