%nproc=1
%NoSave
%Mem=1900MB
#P OB98/GEN NMR

erre ene a

0 1
  C     -574.166     991.115    -173.254
  O     -575.097     990.044    -173.317
  P     -576.527     990.334    -174.001
  C     -578.186     989.759    -172.093
  O     -577.553     989.332    -173.307
  C     -578.947     988.612    -171.452
  O     -580.067     988.226    -172.310
  C     -578.156     987.327    -171.238
  O     -577.342     987.401    -170.058
  C     -579.261     986.305    -171.087
  O     -579.770     986.331    -169.740
  C     -580.332     986.812    -172.061
  N     -582.531     983.169    -174.797
  C     -582.797     983.595    -173.527
  N     -583.819     982.993    -172.888
  N     -582.116     984.542    -172.908
  C     -581.166     985.100    -173.689
  C     -580.794     984.763    -174.989
  C     -581.517     983.677    -175.612
  O     -581.276     983.218    -176.726
  N     -579.783     985.575    -175.430
  C     -579.562     986.415    -174.443
  N     -580.343     986.145    -173.345
  O     -576.347     989.719    -175.474
  O     -576.921     991.773    -174.052
  H     -579.967     987.269    -169.527
  H     -576.955     990.168    -176.094
  H     -583.096     982.458    -175.235
  H     -578.816     987.214    -174.478
  H     -581.334     986.763    -171.638
  H     -578.924     985.283    -171.299
  H     -584.460     982.354    -173.339
  H     -577.559     987.097    -172.129
  H     -584.062     983.309    -171.963
  H     -579.367     988.964    -170.503
  H     -578.873     990.582    -172.311
  H     -577.411     990.128    -171.408
  P     -575.747     987.295    -170.292
  C     -575.863     985.215    -168.714
  O     -575.226     986.448    -169.045
  O     -575.245     988.775    -169.995
  O     -575.346     986.827    -171.646
  H     -574.400     988.968    -170.466
  H     -576.160     984.698    -169.658
  H     -576.727     985.407    -168.111
  H     -575.145     984.589    -168.190
  H     -573.268     990.780    -172.778
  H     -574.588     991.922    -172.692
  H     -573.941     991.450    -174.245

 3  4  5  6  7  8  9  10  11  12  23  26  30  31  33  0
 6-311+G(2d,p)
 ****
 35  36  37  38 0
 6-311+G(2d,p)
 ****
 1  2  13  14  15  16  17  18  19  20  21  22  24  25  27  28  29 0
 3-21G
 ****
 32  34  39  40  41  42  43  44  45  46  47  48  49 0
 3-21G
 ****


