%nproc=1
%NoSave
%Mem=1900MB
#P OB98/GEN NMR

erre ene a

0 1
  C      658.561     491.382     331.331
  O      659.949     491.169     331.483
  P      660.695     489.961     330.759
  C      660.554     487.380     330.865
  O      659.909     488.613     331.172
  C      659.709     486.199     331.376
  O      659.791     486.163     332.835
  C      658.219     486.315     330.985
  O      657.704     485.146     330.327
  C      657.556     486.675     332.298
  O      656.172     486.380     332.350
  C      658.452     485.944     333.313
  N      658.268     486.429     334.686
  C      657.020     486.191     335.280
  O      656.100     485.583     334.738
  N      656.846     486.712     336.525
  C      657.719     487.543     337.177
  O      657.461     488.061     338.255
  C      658.993     487.798     336.486
  C      659.212     487.222     335.288
  O      662.169     489.883     330.961
  O      660.248     490.130     329.222
  H      655.734     486.827     331.598
  H      659.296     490.098     329.067
  H      655.957     486.546     336.972
  H      659.698     488.458     336.975
  H      660.139     487.400     334.757
  H      658.272     484.874     333.304
  H      657.651     487.759     332.444
  H      658.068     487.122     330.257
  H      660.160     485.281     330.977
  H      661.536     487.356     331.351
  H      660.715     487.307     329.786
  P      656.462     485.145     329.317
  C      653.884     484.903     329.670
  O      655.118     485.377     330.157
  O      656.414     483.998     328.369
  O      656.616     486.532     328.523
  H      656.242     486.446     327.637
  H      653.083     485.541     330.054
  H      653.730     483.874     330.023
  H      653.867     484.916     328.566
  H      658.268     492.241     331.898
  H      658.028     490.523     331.682
  H      658.336     491.544     330.297

 3  4  5  6  7  8  9  10  11  12  13  23  28  29  30  31  32 0
 6-311+G(2d,p)
 ****
 33  34 0
 6-311+G(2d,p)
 ****
 1  2  14  15  16  17  18  19  20  21  22  24  25  26  27 0
 3-21G
 ****
 35  36  37  38  39  40  41  42  43  44  45 0
 3-21G
 ****


