%nproc=1
%NoSave
%Mem=1900MB
#P OB98/GEN NMR

erre ene a

0 1
  C        4.166     165.214     -70.042
  O        4.987     166.217     -69.446
  P        6.543     165.903     -69.233
  C        8.609     167.402     -69.623
  O        7.321     167.291     -69.023
  C        8.824     168.818     -70.182
  O        7.965     169.002     -71.341
  C        8.467     169.955     -69.217
  O        9.481     170.438     -68.337
  C        8.162     171.090     -70.193
  O        9.390     171.728     -70.598
  C        7.537     170.379     -71.390
  N        3.473     172.605     -73.561
  C        4.799     172.741     -73.776
  N        5.818     172.111     -73.153
  C        5.354     171.254     -72.230
  C        4.030     171.008     -71.904
  C        3.059     171.732     -72.613
  N        1.709     171.602     -72.387
  N        3.944     170.067     -70.898
  C        5.196     169.765     -70.613
  N        6.085     170.445     -71.399
  O        7.160     164.963     -70.213
  O        6.569     165.276     -67.755
  H        9.227     172.107     -71.480
  H        7.231     164.559     -67.727
  H        5.082     173.452     -74.548
  H        5.503     169.064     -69.849
  H        7.879     170.792     -72.345
  H        7.539     171.869     -69.744
  H        7.567     169.711     -68.641
  H        9.865     168.922     -70.511
  H        8.699     166.671     -70.431
  H        1.081     172.191     -72.909
  H        1.386     170.997     -71.644
  H        9.347     167.133     -68.869
  P        9.365     170.248     -66.751
  C       11.227     170.046     -64.925
  O       10.826     170.564     -66.174
  O        8.792     168.946     -66.309
  O        8.519     171.532     -66.308
  H        8.988     172.377     -66.409
  H       12.305     170.189     -64.815
  H       11.005     168.978     -64.857
  H       10.717     170.584     -64.121
  H        3.161     165.573     -70.115
  H        4.186     164.331     -69.438
  H        4.535     164.986     -71.020

 3  4  5  6  7  8  9  10  11  12  22  25  29  30  31  32 0
 6-311+G(2d,p)
 ****
 33  36  37 0
 6-311+G(2d,p)
 ****
 1  2  13  14  15  16  17  18  19  20  21  23  24  26 0
 3-21G
 ****
 27  28  34  35  38  39  40  41  42  43  44  45  46  47  48 0
 3-21G
 ****


