%nproc=1
%NoSave
%Mem=1900MB
#P OB98/GEN NMR

erre ene a

0 1
  C      -54.977     325.319     -39.196
  O      -54.836     323.925     -39.000
  H      -56.039     325.570     -39.170
  H      -54.570     325.605     -40.170
  H      -54.463     325.867     -38.399
  P      -53.337     323.347     -39.028
  C      -53.739     322.485     -41.445
  O      -52.922     323.261     -40.578
  C      -54.028     323.250     -42.734
  O      -54.514     324.581     -42.441
  C      -52.819     323.418     -43.649
  O      -52.614     322.264     -44.443
  C      -53.237     324.628     -44.470
  O      -54.133     324.262     -45.541
  C      -53.962     325.495     -43.424
  N      -53.632     330.295     -41.890
  C      -54.682     329.615     -42.473
  N      -55.794     330.341     -42.735
  N      -54.646     328.346     -42.783
  C      -53.460     327.761     -42.494
  C      -52.348     328.322     -41.900
  C      -52.416     329.724     -41.536
  O      -51.546     330.364     -40.958
  N      -51.345     327.398     -41.757
  C      -51.829     326.295     -42.293
  N      -53.104     326.471     -42.769
  O      -53.523     321.810     -38.615
  O      -52.365     324.045     -38.137
  H      -53.610     323.988     -46.314
  H      -52.722     321.509     -38.142
  H      -53.729     331.268     -41.659
  H      -51.303     325.355     -42.360
  H      -54.800     326.053     -43.860
  H      -52.382     325.118     -44.937
  H      -55.761     331.347     -42.830
  H      -51.921     323.666     -43.066
  H      -56.562     329.854     -43.184
  H      -54.835     322.719     -43.256
  H      -54.685     322.265     -40.937
  H      -53.229     321.543     -41.673
  P      -51.261     321.428     -44.209
  C      -50.132     322.202     -46.422
  O      -50.105     322.206     -45.001
  O      -51.486     320.109     -45.092
  O      -50.969     321.109     -42.779
  H      -50.862     319.413     -44.813
  H      -49.299     322.760     -46.796
  H      -51.043     322.648     -46.763
  H      -50.074     321.194     -46.777

 6  7  8  9  10  11  12  13  14  15  26  29  33  34 0
 6-311+G(2d,p)
 ****
 36  38  39  40  41 0
 6-311+G(2d,p)
 ****
 1  2  3  4  5  16  17  18  19  20  21  22  23  24  25 0
 3-21G
 ****
 27  28  30  31  32  35  37  42  43  44  45  46  47 0
 3-21G
 ****
 48  49 0
 3-21G
 ****


