%nproc=1
%NoSave
%Mem=1900MB
#P OB98/GEN NMR

erre ene a

0 1
  C     -190.138    -444.721    -128.320
  O     -190.722    -444.151    -129.472
  H     -189.074    -444.461    -128.299
  H     -190.230    -445.809    -128.347
  H     -190.615    -444.328    -127.419
  P     -192.274    -444.463    -129.728
  C     -193.489    -446.441    -130.899
  O     -192.372    -446.012    -130.133
  C     -193.484    -447.962    -131.009
  O     -192.433    -448.386    -131.911
  C     -193.206    -448.681    -129.696
  O     -194.351    -448.729    -128.855
  C     -192.785    -450.052    -130.199
  O     -193.926    -450.885    -130.468
  C     -192.029    -449.712    -131.501
  N     -190.578    -449.817    -131.342
  C     -190.003    -450.981    -131.843
  O     -190.648    -451.872    -132.395
  N     -188.652    -451.100    -131.663
  C     -187.846    -450.209    -131.006
  O     -186.654    -450.415    -130.816
  C     -188.512    -448.997    -130.506
  C     -189.831    -448.860    -130.685
  O     -192.580    -443.690    -131.099
  O     -193.193    -444.045    -128.627
  H     -193.059    -442.862    -130.913
  H     -194.392    -450.990    -129.615
  H     -188.215    -451.942    -132.013
  H     -187.899    -448.266    -129.988
  H     -190.345    -447.980    -130.306
  H     -192.328    -450.393    -132.310
  H     -192.175    -450.582    -129.467
  H     -192.354    -448.215    -129.183
  H     -194.448    -448.285    -131.434
  H     -193.431    -446.010    -131.904
  H     -194.407    -446.087    -130.416
  P     -194.136    -448.687    -127.268
  C     -193.649    -450.529    -125.458
  O     -193.703    -450.167    -126.827
  O     -195.645    -448.550    -126.756
  O     -193.216    -447.601    -126.813
  H     -196.279    -449.042    -127.304
  H     -193.341    -451.550    -125.371
  H     -194.617    -450.410    -125.019
  H     -192.947    -449.901    -124.950

 6  7  8  9  10  11  12  13  14  15  16  27  31  32  33  34  35 0
 6-311+G(2d,p)
 ****
 36  37 0
 6-311+G(2d,p)
 ****
 1  2  3  4  5  17  18  19  20  21  22  23  24  25 0
 3-21G
 ****
 26  28  29  30  38  39  40  41  42  43  44  45 0
 3-21G
 ****


