%nproc=1
%NoSave
%Mem=1900MB
#P OB98/GEN NMR

erre ene a

0 1
  C        0.602      90.891      77.356
  O        0.406      90.030      76.253
  H       -0.374      91.242      77.702
  H        1.195      91.759      77.056
  H        1.096      90.365      78.177
  P        1.677      89.294      75.611
  C        1.114      89.320      73.103
  O        1.157      88.543      74.290
  C        0.400      88.559      71.988
  O        1.203      87.408      71.621
  C       -0.993      88.056      72.380
  O       -1.853      88.175      71.247
  C       -0.762      86.590      72.693
  O       -1.937      85.803      72.503
  C        0.370      86.237      71.730
  N        0.315      81.227      72.364
  C       -0.612      82.061      71.771
  N       -1.735      81.481      71.296
  N       -0.454      83.353      71.656
  C        0.722      83.797      72.162
  C        1.719      83.074      72.773
  C        1.526      81.646      72.908
  O        2.304      80.859      73.434
  N        2.747      83.889      73.177
  C        2.370      85.101      72.813
  N        1.144      85.099      72.202
  O        2.456      88.427      76.547
  O        2.564      90.489      75.029
  H       -1.669      84.863      72.587
  H        3.299      90.699      75.634
  H        0.138      80.240      72.435
  H        2.939      86.007      72.973
  H        0.003      85.978      70.730
  H       -0.440      86.480      73.736
  H       -1.917      80.491      71.335
  H       -1.418      88.597      73.230
  H       -2.419      82.070      70.835
  H        0.350      89.205      71.103
  H        2.143      89.540      72.799
  H        0.595      90.264      73.305
  P       -2.615      89.563      70.999
  C       -4.589      88.584      69.665
  O       -3.451      89.439      69.636
  O       -1.777      90.791      71.124
  O       -3.769      89.536      72.116
  H       -3.972      90.455      72.380
  H       -5.060      88.584      68.704
  H       -5.281      88.936      70.402
  H       -4.281      87.589      69.911

 6  7  8  9  10  11  12  13  14  15  26  29  33  34 0
 6-311+G(2d,p)
 ****
 36  38  39  40  41 0
 6-311+G(2d,p)
 ****
 1  2  3  4  5  16  17  18  19  20  21  22  23  24  25 0
 3-21G
 ****
 27  28  30  31  32  35  37  42  43  44  45  46  47 0
 3-21G
 ****
 48  49 0
 3-21G
 ****


