%nproc=1
%NoSave
%Mem=1900MB
#P OB98/GEN NMR

erre ene a

0 1
  C      122.914    -407.501     781.191
  O      123.211    -408.533     780.241
  P      123.603    -408.083     778.757
  C      125.805    -409.338     778.152
  O      125.196    -408.133     778.607
  C      127.279    -409.095     777.829
  O      127.427    -408.250     776.670
  C      128.027    -408.384     778.942
  O      128.348    -409.281     779.985
  C      129.244    -407.830     778.207
  O      130.336    -408.767     778.221
  C      128.718    -407.623     776.763
  N      128.653    -406.216     776.392
  C      129.359    -405.859     775.240
  O      130.007    -406.707     774.612
  N      129.332    -404.541     774.838
  C      128.684    -403.664     775.534
  N      128.698    -402.382     775.093
  C      127.951    -403.999     776.779
  C      127.979    -405.283     777.139
  O      123.281    -406.511     778.754
  O      122.846    -408.798     777.682
  H      131.101    -408.287     777.847
  H      122.984    -406.229     777.868
  H      127.435    -403.231     777.335
  H      127.472    -405.618     778.042
  H      129.370    -408.132     776.044
  H      129.616    -406.916     778.674
  H      127.419    -407.548     779.324
  H      127.759    -410.066     777.615
  H      129.215    -402.188     774.242
  H      125.289    -409.711     777.266
  H      128.237    -401.616     775.569
  H      125.692    -410.112     778.922
  P      127.862    -408.915     781.468
  C      125.982    -410.666     781.552
  O      126.300    -409.280     781.500
  O      127.817    -407.306     781.413
  O      128.692    -409.415     782.599
  H      127.632    -406.947     782.304
  H      124.917    -410.764     781.782
  H      126.569    -411.164     782.334
  H      126.182    -411.128     780.583
  H      122.670    -407.944     782.134
  H      122.083    -406.924     780.843
  H      123.767    -406.865     781.305

 3  4  5  6  7  8  9  10  11  12  13  21  23  27  28  29  30  32 0
 6-311+G(2d,p)
 ****
 34  35 0
 6-311+G(2d,p)
 ****
 1  2  14  15  16  17  18  19  20  22  24  25  26 0
 3-21G
 ****
 31  33  36  37  38  39  40  41  42  43  44  45  46 0
 3-21G
 ****


