%nproc=1
%NoSave
%Mem=1900MB
#P OB98/GEN NMR

erre ene a

0 1
  C       57.996      24.075     -33.116
  O       56.802      24.605     -32.580
  H       58.077      23.027     -32.815
  H       58.860      24.617     -32.725
  H       57.987      24.125     -34.208
  P       56.368      26.094     -32.980
  C       55.836      25.095     -35.294
  O       56.418      26.178     -34.581
  C       55.103      25.620     -36.526
  O       54.615      24.520     -37.325
  C       53.880      26.471     -36.200
  O       54.265      27.760     -35.769
  C       53.147      26.424     -37.532
  O       53.724      27.343     -38.472
  C       53.402      24.964     -37.975
  N       52.282      24.073     -37.667
  C       51.109      24.296     -38.380
  O       50.988      25.183     -39.221
  N       50.053      23.485     -38.056
  C       50.036      22.562     -37.051
  O       49.011      22.017     -36.653
  C       51.324      22.319     -36.386
  C       52.368      23.084     -36.707
  O       57.084      27.191     -32.267
  O       54.796      26.123     -32.671
  H       54.644      26.575     -31.820
  H       53.329      27.134     -39.341
  H       49.183      23.669     -38.533
  H       51.367      21.548     -35.626
  H       53.320      22.943     -36.208
  H       53.586      24.918     -39.056
  H       52.092      26.686     -37.435
  H       53.267      25.973     -35.441
  H       55.819      26.186     -37.134
  H       55.123      24.587     -34.636
  H       56.622      24.390     -35.580
  P       53.241      28.988     -35.813
  C       52.125      28.684     -33.527
  O       51.958      28.598     -34.935
  O       52.924      29.498     -37.180
  O       53.948      30.123     -34.932
  H       53.997      30.948     -35.453
  H       51.213      28.404     -33.042
  H       52.378      29.688     -33.258
  H       52.910      28.025     -33.220

 6  7  8  9  10  11  12  13  14  15  16  27  31  32  33  34  35 0
 6-311+G(2d,p)
 ****
 36  37 0
 6-311+G(2d,p)
 ****
 1  2  3  4  5  17  18  19  20  21  22  23  24  25 0
 3-21G
 ****
 26  28  29  30  38  39  40  41  42  43  44  45 0
 3-21G
 ****


