%nproc=1
%NoSave
%Mem=1900MB
#P OB98/GEN NMR

erre ene a

0 1
  C      -82.137     330.223       2.136
  O      -83.467     329.746       2.165
  H      -82.108     331.249       1.756
  H      -81.740     330.214       3.155
  H      -81.516     329.574       1.509
  P      -84.263     329.784       0.772
  C      -86.188     331.164       1.825
  O      -85.814     329.977       1.144
  C      -87.627     331.066       2.312
  O      -88.538     331.070       1.189
  C      -87.952     329.793       3.087
  O      -87.496     329.859       4.432
  C      -89.473     329.794       3.011
  O      -90.010     330.689       4.004
  C      -89.735     330.353       1.604
  N      -93.414     328.163      -1.235
  C      -93.449     329.175      -0.335
  N      -92.438     329.694       0.392
  C      -91.279     329.078       0.100
  C      -91.085     328.037      -0.792
  C      -92.221     327.569      -1.476
  N      -92.176     326.532      -2.381
  N      -89.757     327.672      -0.836
  C      -89.154     328.475       0.012
  N      -90.033     329.341       0.614
  O      -84.197     328.265       0.262
  O      -83.724     330.730      -0.246
  H      -90.983     330.670       3.899
  H      -84.118     328.261      -0.711
  H      -94.426     329.624      -0.175
  H      -88.093     328.471       0.226
  H      -90.553     331.085       1.604
  H      -89.913     328.811       3.185
  H      -87.563     328.904       2.573
  H      -87.845     331.953       2.921
  H      -86.100     332.022       1.147
  H      -92.970     326.373      -2.977
  H      -91.275     326.094      -2.561
  H      -85.509     331.317       2.673
  P      -85.988     329.390       4.725
  C      -85.841     329.765       7.290
  O      -85.508     330.252       5.994
  O      -85.167     330.030       3.510
  O      -85.784     327.916       4.814
  H      -84.352     329.516       3.351
  H      -85.460     330.436       8.032
  H      -85.408     328.796       7.429
  H      -86.905     329.697       7.383

 6  7  8  9  10  11  12  13  14  15  25  28  32  33  34  35 0
 6-311+G(2d,p)
 ****
 36  39  40 0
 6-311+G(2d,p)
 ****
 1  2  3  4  5  16  17  18  19  20  21  22  23  24 0
 3-21G
 ****
 26  27  29  30  31  37  38  41  42  43  44  45  46  47  48 0
 3-21G
 ****


