%nproc=1
%NoSave
%Mem=1900MB
#P OB98/GEN NMR

erre ene a

0 1
  C     -169.820    -289.447      11.902
  O     -169.957    -290.586      11.072
  H     -170.588    -288.719      11.628
  H     -168.836    -288.999      11.749
  H     -169.949    -289.720      12.955
  P     -169.158    -291.906      11.514
  C     -166.775    -291.134      10.826
  O     -167.869    -292.000      10.557
  C     -166.167    -290.626       9.519
  O     -165.145    -289.639       9.789
  C     -165.507    -291.711       8.675
  O     -166.458    -292.402       7.874
  C     -164.582    -290.867       7.806
  O     -165.346    -290.224       6.761
  C     -164.083    -289.815       8.807
  N     -159.094    -288.955       9.178
  C     -160.025    -288.438       8.289
  N     -159.548    -287.567       7.370
  N     -161.297    -288.738       8.304
  C     -161.619    -289.636       9.273
  C     -160.791    -290.227      10.199
  C     -159.390    -289.869      10.183
  O     -158.533    -290.291      10.958
  N     -161.480    -291.082      11.012
  C     -162.721    -291.030      10.566
  N     -162.857    -290.171       9.501
  O     -170.107    -293.086      10.987
  O     -168.894    -292.032      12.974
  H     -165.885    -290.915       6.332
  H     -170.600    -293.454      11.744
  H     -158.125    -288.694       9.118
  H     -163.551    -291.588      10.975
  H     -163.912    -288.842       8.336
  H     -163.807    -291.458       7.317
  H     -158.578    -287.308       7.288
  H     -164.908    -292.403       9.281
  H     -160.213    -287.174       6.708
  H     -166.961    -290.123       8.954
  H     -166.018    -291.685      11.391
  H     -167.129    -290.290      11.424
  P     -166.981    -293.833       8.389
  C     -164.585    -294.665       7.862
  O     -165.973    -294.940       7.803
  O     -168.318    -294.050       7.530
  O     -167.257    -293.924       9.851
  H     -169.098    -294.004       8.114
  H     -164.041    -295.484       7.439
  H     -164.291    -294.530       8.882
  H     -164.374    -293.773       7.309

 6  7  8  9  10  11  12  13  14  15  26  29  33  34 0
 6-311+G(2d,p)
 ****
 36  38  39  40  41 0
 6-311+G(2d,p)
 ****
 1  2  3  4  5  16  17  18  19  20  21  22  23  24  25 0
 3-21G
 ****
 27  28  30  31  32  35  37  42  43  44  45  46  47 0
 3-21G
 ****
 48  49 0
 3-21G
 ****


