%nproc=1
%NoSave
%Mem=1900MB
#P OB98/GEN NMR

erre ene a

0 1
  C     -219.209     147.798     118.815
  O     -220.258     148.130     119.702
  H     -218.793     146.832     119.114
  H     -218.416     148.550     118.866
  H     -219.578     147.717     117.789
  P     -221.132     149.442     119.411
  C     -220.721     151.985     119.374
  O     -220.141     150.696     119.533
  C     -220.108     152.959     120.378
  O     -220.352     152.508     121.730
  C     -218.594     153.102     120.256
  O     -218.251     153.898     119.138
  C     -218.260     153.708     121.612
  O     -218.543     155.115     121.631
  C     -219.239     152.946     122.541
  N     -218.606     151.812     123.225
  C     -218.104     152.070     124.498
  O     -218.167     153.174     125.038
  N     -217.481     151.018     125.115
  C     -217.239     149.796     124.554
  O     -216.490     148.962     125.058
  C     -217.858     149.560     123.244
  C     -218.493     150.567     122.640
  O     -222.400     149.560     120.186
  O     -221.413     149.362     117.835
  H     -222.318     149.029     117.686
  H     -218.263     155.442     122.506
  H     -217.071     151.206     126.017
  H     -217.742     148.581     122.795
  H     -218.930     150.426     121.657
  H     -219.647     153.621     123.303
  H     -217.207     153.586     121.874
  H     -218.126     152.110     120.188
  H     -220.600     153.935     120.257
  H     -221.797     151.908     119.554
  H     -220.554     152.329     118.349
  P     -216.744     153.964     118.602
  C     -215.064     155.897     118.501
  O     -216.021     155.215     119.297
  O     -216.600     153.913     117.117
  O     -216.025     152.705     119.287
  H     -215.595     152.165     118.595
  H     -214.647     156.708     119.061
  H     -215.538     156.278     117.621
  H     -214.285     155.219     118.221

 6  7  8  9  10  11  12  13  14  15  16  27  31  32  33  34  35 0
 6-311+G(2d,p)
 ****
 36  37 0
 6-311+G(2d,p)
 ****
 1  2  3  4  5  17  18  19  20  21  22  23  24  25 0
 3-21G
 ****
 26  28  29  30  38  39  40  41  42  43  44  45 0
 3-21G
 ****


