%nproc=1
%NoSave
%Mem=1900MB
#P OB98/GEN NMR

erre ene a

0 1
  C      -61.574    -182.814     281.382
  O      -60.523    -181.867     281.443
  H      -62.162    -182.742     282.303
  H      -61.164    -183.822     281.311
  H      -62.230    -182.610     280.532
  P      -59.586    -181.660     280.160
  C      -60.998    -179.648     279.376
  O      -59.703    -180.115     279.723
  C      -60.922    -178.228     278.792
  O      -60.688    -177.294     279.877
  C      -59.798    -178.041     277.759
  O      -60.250    -177.167     276.725
  C      -58.696    -177.372     278.558
  O      -57.826    -176.592     277.735
  C      -59.497    -176.539     279.563
  N      -55.385    -174.224     281.384
  C      -55.918    -174.221     280.111
  N      -55.254    -173.511     279.175
  N      -57.009    -174.862     279.779
  C      -57.591    -175.509     280.825
  C      -57.162    -175.591     282.126
  C      -55.942    -174.896     282.475
  O      -55.408    -174.878     283.584
  N      -58.010    -176.366     282.887
  C      -58.950    -176.752     282.039
  N      -58.733    -176.270     280.771
  O      -59.813    -182.641     279.049
  O      -58.096    -181.759     280.734
  H      -57.051    -176.355     278.289
  H      -57.688    -182.612     280.500
  H      -54.536    -173.725     281.583
  H      -59.795    -177.378     282.289
  H      -59.802    -175.564     279.151
  H      -58.095    -178.133     279.072
  H      -54.418    -172.976     279.365
  H      -59.477    -178.990     277.326
  H      -55.638    -173.468     278.235
  H      -61.895    -177.978     278.355
  H      -61.619    -179.640     280.278
  H      -61.446    -180.331     278.641
  P      -60.259    -177.694     275.208
  C      -62.557    -176.711     274.584
  O      -61.157    -176.698     274.319
  O      -60.576    -179.144     275.036
  O      -58.770    -177.369     274.702
  H      -58.491    -178.062     274.080
  H      -63.049    -176.014     273.938
  H      -62.730    -176.435     275.603
  H      -62.944    -177.693     274.410

 6  7  8  9  10  11  12  13  14  15  26  29  33  34 0
 6-311+G(2d,p)
 ****
 36  38  39  40  41 0
 6-311+G(2d,p)
 ****
 1  2  3  4  5  16  17  18  19  20  21  22  23  24  25 0
 3-21G
 ****
 27  28  30  31  32  35  37  42  43  44  45  46  47 0
 3-21G
 ****
 48  49 0
 3-21G
 ****


