%nproc=1
%NoSave
%Mem=1900MB
#P OB98/GEN NMR

erre ene a

0 1
  C     -476.934     225.957      55.662
  O     -475.663     226.549      55.489
  H     -476.853     224.884      55.461
  H     -477.647     226.392      54.958
  H     -477.284     226.098      56.688
  P     -475.522     228.094      55.909
  C     -475.665     229.002      53.448
  O     -476.240     228.927      54.738
  C     -476.410     230.024      52.584
  O     -476.512     231.269      53.325
  C     -475.714     230.327      51.254
  O     -476.722     230.552      50.259
  C     -474.981     231.628      51.531
  O     -474.707     232.356      50.336
  C     -475.947     232.316      52.511
  N     -475.285     233.335      53.322
  C     -475.240     234.630      52.792
  O     -475.733     234.865      51.684
  N     -474.606     235.616      53.503
  C     -474.011     235.327      54.617
  N     -473.383     236.342      55.261
  C     -473.993     233.965      55.189
  C     -474.651     233.030      54.505
  O     -473.964     228.362      55.664
  O     -475.993     228.400      57.292
  H     -474.256     231.753      49.703
  H     -473.635     227.992      54.827
  H     -473.474     233.769      56.118
  H     -474.696     232.010      54.856
  H     -476.772     232.796      51.964
  H     -474.022     231.420      52.025
  H     -475.047     229.522      50.932
  H     -477.429     229.664      52.423
  H     -473.398     237.254      54.820
  H     -475.696     228.023      52.960
  H     -472.839     236.220      56.105
  H     -474.616     229.291      53.559
  P     -477.182     229.351      49.316
  C     -475.637     230.160      47.404
  O     -476.042     229.067      48.224
  O     -478.570     229.437      48.778
  O     -477.042     228.070      50.288
  H     -477.811     227.490      50.124
  H     -474.877     229.834      46.725
  H     -475.252     230.945      48.021
  H     -476.478     230.522      46.850

 6  7  8  9  10  11  12  13  14  15  16  26  30  31  32  33  35 0
 6-311+G(2d,p)
 ****
 37  38 0
 6-311+G(2d,p)
 ****
 1  2  3  4  5  17  18  19  20  21  22  23  24  25 0
 3-21G
 ****
 27  28  29  34  36  39  40  41  42  43  44  45  46 0
 3-21G
 ****


