%nproc=1
%NoSave
%Mem=1900MB
#P OB98/GEN NMR

erre ene a

0 1
  C      224.992     628.135    -384.647
  O      225.533     629.344    -385.184
  P      224.728     630.130    -386.336
  C      223.865     632.243    -385.115
  O      223.542     630.970    -385.662
  C      222.608     632.872    -384.484
  O      222.160     632.108    -383.329
  C      222.859     634.278    -383.944
  O      223.083     635.287    -384.902
  C      221.698     634.460    -382.982
  O      220.520     634.883    -383.671
  C      221.526     633.034    -382.421
  N      222.058     632.900    -381.061
  C      221.162     633.073    -380.021
  O      219.982     633.372    -380.201
  N      221.664     632.926    -378.757
  C      222.973     632.663    -378.435
  O      223.380     632.566    -377.288
  C      223.886     632.513    -379.580
  C      223.408     632.641    -380.818
  O      224.353     629.316    -387.530
  O      225.764     631.286    -386.758
  H      220.387     634.282    -384.429
  H      225.737     631.376    -387.732
  H      221.027     633.048    -377.986
  H      224.929     632.315    -379.370
  H      224.063     632.532    -381.682
  H      220.464     632.760    -382.382
  H      221.923     635.228    -382.229
  H      223.777     634.244    -383.336
  H      221.802     632.867    -385.219
  H      224.257     632.889    -385.894
  H      224.657     632.118    -384.374
  P      224.036     636.557    -384.641
  C      226.162     635.076    -384.807
  O      225.433     636.024    -384.059
  O      223.430     637.747    -383.963
  O      224.439     636.967    -386.132
  H      224.555     637.941    -386.167
  H      227.068     634.810    -384.260
  H      226.437     635.475    -385.780
  H      225.565     634.162    -384.945
  H      225.653     627.750    -383.898
  H      224.883     627.414    -385.430
  H      224.036     628.335    -384.210

 3  4  5  6  7  8  9  10  11  12  13  23  28  29  30  31  32 0
 6-311+G(2d,p)
 ****
 33  34 0
 6-311+G(2d,p)
 ****
 1  2  14  15  16  17  18  19  20  21  22  24  25  26  27 0
 3-21G
 ****
 35  36  37  38  39  40  41  42  43  44  45 0
 3-21G
 ****


