%nproc=1
%NoSave
%Mem=1900MB
#P OB98/GEN NMR

erre ene a

0 1
  C      972.300    -352.834     292.358
  O      971.727    -351.628     291.888
  P      971.079    -351.571     290.425
  C      970.376    -349.113     290.707
  O      971.123    -350.044     289.935
  C      970.478    -347.720     290.098
  O      971.767    -347.142     290.380
  C      970.325    -347.684     288.582
  O      968.974    -347.833     288.205
  C      970.945    -346.334     288.256
  O      969.987    -345.282     288.465
  C      972.074    -346.234     289.288
  N      976.606    -344.323     287.933
  C      975.454    -343.726     288.309
  N      974.271    -344.307     288.620
  C      974.354    -345.642     288.483
  C      975.449    -346.388     288.072
  C      976.632    -345.670     287.811
  N      977.831    -346.271     287.490
  N      975.135    -347.734     288.029
  C      973.866    -347.793     288.394
  N      973.372    -346.567     288.736
  O      969.755    -352.246     290.285
  O      972.175    -352.280     289.496
  H      970.453    -344.432     288.336
  H      971.777    -353.064     289.076
  H      975.484    -342.645     288.384
  H      973.272    -348.694     288.442
  H      972.145    -345.231     289.719
  H      971.286    -346.266     287.218
  H      970.945    -348.472     288.138
  H      969.717    -347.082     290.574
  H      970.786    -349.107     291.724
  H      978.647    -345.677     287.468
  H      977.941    -347.263     287.692
  H      969.327    -349.434     290.757
  P      968.609    -348.317     286.729
  C      966.100    -347.876     287.009
  O      967.278    -347.540     286.297
  O      968.581    -349.802     286.518
  O      969.732    -347.625     285.808
  H      969.929    -348.197     285.044
  H      965.705    -348.824     286.642
  H      965.358    -347.082     286.850
  H      966.306    -347.954     288.085
  H      972.681    -352.686     293.347
  H      973.098    -353.126     291.708
  H      971.554    -353.601     292.374

 3  4  5  6  7  8  9  10  11  12  22  25  29  30  31  32 0
 6-311+G(2d,p)
 ****
 33  36  37 0
 6-311+G(2d,p)
 ****
 1  2  13  14  15  16  17  18  19  20  21  23  24  26 0
 3-21G
 ****
 27  28  34  35  38  39  40  41  42  43  44  45  46  47  48 0
 3-21G
 ****


