%nproc=1
%NoSave
%Mem=1900MB
#P OB98/GEN NMR

erre ene a

0 1
  C     -251.010     323.856     493.568
  O     -250.322     323.309     492.459
  H     -251.168     323.068     494.308
  H     -251.981     324.241     493.248
  H     -250.422     324.659     494.024
  P     -249.789     324.349     491.366
  C     -247.786     325.684     492.409
  O     -249.183     325.611     492.164
  C     -247.203     326.933     491.753
  O     -247.591     327.009     490.364
  C     -247.709     328.239     492.341
  O     -247.170     328.509     493.616
  C     -247.259     329.225     491.269
  O     -245.894     329.624     491.462
  C     -247.406     328.395     489.974
  N     -248.494     328.876     489.145
  C     -248.126     329.286     487.856
  O     -246.955     329.201     487.493
  N     -249.088     329.814     487.035
  C     -250.302     329.951     487.468
  N     -251.203     330.508     486.614
  C     -250.730     329.534     488.820
  C     -249.786     329.010     489.596
  O     -251.147     324.927     490.747
  O     -248.854     323.774     490.356
  H     -245.345     328.856     491.198
  H     -251.791     325.211     491.416
  H     -251.758     329.652     489.129
  H     -250.011     328.680     490.603
  H     -246.482     328.427     489.384
  H     -247.861     330.135     491.277
  H     -248.808     328.242     492.364
  H     -246.107     326.868     491.809
  H     -250.853     330.832     485.719
  H     -247.280     324.788     492.036
  H     -252.154     330.734     486.868
  H     -247.639     325.719     493.492
  P     -248.017     329.277     494.735
  C     -248.832     327.481     496.391
  O     -249.152     328.254     495.238
  O     -248.537     330.618     494.336
  O     -247.019     329.311     495.985
  H     -246.739     328.436     496.310
  H     -249.655     326.841     496.631
  H     -248.636     328.134     497.215
  H     -247.965     326.887     496.193

 6  7  8  9  10  11  12  13  14  15  16  26  30  31  32  33  35 0
 6-311+G(2d,p)
 ****
 37  38 0
 6-311+G(2d,p)
 ****
 1  2  3  4  5  17  18  19  20  21  22  23  24  25 0
 3-21G
 ****
 27  28  29  34  36  39  40  41  42  43  44  45  46 0
 3-21G
 ****


