%nproc=1
%NoSave
%Mem=1900MB
#P OB98/GEN NMR

erre ene a

0 1
  C     -969.880     494.230     185.866
  O     -970.837     493.204     186.039
  H     -970.395     495.189     185.790
  H     -969.311     494.066     184.943
  H     -969.188     494.264     186.716
  P     -970.272     491.739     186.374
  C     -972.402     491.231     187.768
  O     -971.547     490.825     186.702
  C     -973.728     490.451     187.708
  O     -973.486     489.042     187.917
  C     -974.739     490.874     188.762
  O     -975.472     492.032     188.367
  C     -975.637     489.638     188.793
  O     -976.510     489.655     187.646
  C     -974.605     488.500     188.660
  N     -974.931     484.728     192.035
  C     -975.599     484.909     190.832
  N     -976.487     483.953     190.483
  N     -975.415     485.936     190.049
  C     -974.504     486.821     190.525
  C     -973.782     486.751     191.702
  C     -973.988     485.600     192.561
  O     -973.406     485.379     193.604
  N     -972.956     487.822     191.842
  C     -973.185     488.568     190.765
  N     -974.130     487.995     189.949
  O     -969.577     491.930     187.808
  O     -969.311     491.172     185.380
  H     -976.832     488.738     187.518
  H     -968.783     491.365     187.851
  H     -975.122     483.923     192.607
  H     -972.701     489.501     190.541
  H     -975.001     487.647     188.106
  H     -976.267     489.603     189.680
  H     -976.716     483.165     191.071
  H     -974.270     490.998     189.752
  H     -976.968     484.043     189.590
  H     -974.131     490.578     186.703
  H     -972.617     492.300     187.680
  H     -971.896     491.036     188.728
  P     -975.350     493.344     189.291
  C     -976.900     494.492     187.560
  O     -976.625     494.246     188.924
  O     -974.132     494.137     188.632
  O     -975.126     493.071     190.740
  H     -973.722     494.743     189.285
  H     -977.774     495.104     187.477
  H     -977.066     493.563     187.056
  H     -976.068     494.996     187.114

 6  7  8  9  10  11  12  13  14  15  26  29  33  34 0
 6-311+G(2d,p)
 ****
 36  38  39  40  41 0
 6-311+G(2d,p)
 ****
 1  2  3  4  5  16  17  18  19  20  21  22  23  24  25 0
 3-21G
 ****
 27  28  30  31  32  35  37  42  43  44  45  46  47 0
 3-21G
 ****
 48  49 0
 3-21G
 ****


