%nproc=1
%NoSave
%Mem=1900MB
#P OB98/GEN NMR

erre ene a

0 1
  C      368.642    -696.427     213.620
  O      367.305    -696.044     213.262
  P      366.822    -695.855     211.740
  C      366.653    -698.250     210.763
  O      365.947    -697.132     211.324
  C      365.798    -699.509     210.815
  O      365.704    -700.008     212.173
  C      364.344    -699.337     210.381
  O      364.211    -699.176     208.978
  C      363.712    -700.611     210.924
  O      363.882    -701.716     210.031
  C      364.531    -700.856     212.213
  N      363.767    -700.614     213.431
  C      362.837    -701.608     213.794
  O      362.650    -702.575     213.065
  N      362.148    -701.465     214.963
  C      362.277    -700.363     215.662
  N      361.580    -700.275     216.825
  C      363.132    -699.230     215.235
  C      363.850    -699.425     214.142
  O      367.928    -695.538     210.787
  O      365.751    -694.656     211.792
  H      365.721    -694.219     210.920
  H      363.198    -701.632     209.348
  H      363.185    -698.330     215.835
  H      364.518    -698.665     213.758
  H      364.919    -701.885     212.237
  H      362.632    -700.497     211.102
  H      363.920    -698.468     210.894
  H      366.279    -700.281     210.204
  H      361.009    -701.064     217.086
  H      367.568    -698.413     211.347
  H      361.627    -699.480     217.446
  H      366.948    -698.008     209.740
  P      363.380    -697.907     208.465
  C      364.378    -697.336     206.128
  O      363.350    -697.963     206.853
  O      364.342    -696.673     208.776
  O      362.041    -697.734     209.114
  H      363.815    -695.915     209.096
  H      364.494    -697.835     205.172
  H      365.331    -697.362     206.672
  H      364.101    -696.285     205.947
  H      368.722    -696.488     214.685
  H      369.333    -695.698     213.251
  H      368.867    -697.381     213.190

 3  4  5  6  7  8  9  10  11  12  13  24  27  28  29  30  32 0
 6-311+G(2d,p)
 ****
 34  35 0
 6-311+G(2d,p)
 ****
 1  2  14  15  16  17  18  19  20  21  22  23  25  26 0
 3-21G
 ****
 31  33  36  37  38  39  40  41  42  43  44  45  46 0
 3-21G
 ****


