%nproc=1
%NoSave
%Mem=1900MB
#P OB98/GEN NMR

erre ene a

0 1
  C       64.068     -24.719      -4.808
  O       64.536     -25.727      -3.928
  P       65.611     -26.772      -4.504
  C       63.575     -28.221      -5.214
  O       64.859     -28.187      -4.602
  C       62.934     -29.604      -5.083
  O       61.599     -29.556      -5.642
  C       63.705     -30.719      -5.791
  O       63.604     -31.897      -4.990
  C       62.924     -30.928      -7.074
  O       63.118     -32.239      -7.602
  C       61.492     -30.622      -6.608
  N       60.618     -30.253      -7.716
  C       60.331     -31.251      -8.653
  O       60.871     -32.353      -8.563
  N       59.483     -30.959      -9.692
  C       59.048     -29.747      -9.843
  N       58.209     -29.509     -10.886
  C       59.426     -28.637      -8.948
  C       60.188     -28.962      -7.905
  O       66.612     -26.971      -3.272
  O       66.316     -26.322      -5.741
  H       62.848     -32.887      -6.914
  H       67.520     -27.142      -3.586
  H       59.065     -27.637      -9.141
  H       60.495     -28.218      -7.183
  H       61.059     -31.491      -6.097
  H       63.245     -30.200      -7.829
  H       64.757     -30.471      -5.954
  H       62.831     -29.833      -4.015
  H       57.976     -30.283     -11.495
  H       63.682     -27.994      -6.278
  H       57.821     -28.596     -11.084
  H       62.938     -27.454      -4.763
  P       64.878     -32.307      -4.106
  C       65.479     -34.399      -5.467
  O       64.980     -33.901      -4.241
  O       64.297     -32.149      -2.618
  O       66.139     -31.529      -4.278
  H       65.006     -32.312      -1.971
  H       65.624     -35.478      -5.374
  H       66.437     -33.933      -5.708
  H       64.757     -34.210      -6.267
  H       63.362     -24.098      -4.296
  H       63.595     -25.175      -5.653
  H       64.893     -24.123      -5.139

 3  4  5  6  7  8  9  10  11  12  13  21  23  27  28  29  30  32 0
 6-311+G(2d,p)
 ****
 34  35 0
 6-311+G(2d,p)
 ****
 1  2  14  15  16  17  18  19  20  22  24  25  26 0
 3-21G
 ****
 31  33  36  37  38  39  40  41  42  43  44  45  46 0
 3-21G
 ****


