%nproc=1
%NoSave
%Mem=1900MB
#P OB98/GEN NMR

erre ene a

0 1
  C     -313.074     536.754     210.223
  O     -312.008     535.932     209.794
  H     -312.740     537.796     210.204
  H     -313.370     536.500     211.243
  H     -313.929     536.649     209.548
  P     -312.205     534.341     209.842
  C     -309.911     534.158     208.663
  O     -310.744     533.695     209.714
  C     -308.730     533.205     208.442
  O     -307.788     533.359     209.545
  C     -309.130     531.721     208.390
  O     -308.195     531.056     207.535
  C     -308.926     531.307     209.835
  O     -308.918     529.906     209.972
  C     -307.633     532.061     210.159
  N     -307.389     532.163     211.589
  C     -306.075     531.919     212.008
  O     -305.208     531.620     211.190
  N     -305.791     531.984     213.349
  C     -306.743     532.206     214.202
  N     -306.395     532.245     215.515
  C     -308.151     532.415     213.802
  C     -308.398     532.383     212.493
  O     -313.221     533.785     208.902
  O     -312.600     534.048     211.366
  H     -308.812     529.649     210.917
  H     -313.554     533.858     211.429
  H     -308.909     532.579     214.553
  H     -309.403     532.524     212.104
  H     -306.768     531.576     209.690
  H     -309.747     531.676     210.461
  H     -310.151     531.567     208.029
  H     -308.201     533.501     207.528
  H     -305.423     532.089     215.744
  H     -309.542     535.149     208.949
  H     -307.053     532.392     216.264
  H     -310.487     534.249     207.736
  P     -308.622     530.333     206.168
  C     -306.361     530.276     204.927
  O     -307.372     529.517     205.583
  O     -309.270     531.247     205.176
  O     -309.642     529.178     206.611
  H     -310.288     529.037     205.896
  H     -305.588     529.620     204.585
  H     -305.948     530.987     205.612
  H     -306.787     530.791     204.092

 6  7  8  9  10  11  12  13  14  15  16  26  30  31  32  33  35 0
 6-311+G(2d,p)
 ****
 37  38 0
 6-311+G(2d,p)
 ****
 1  2  3  4  5  17  18  19  20  21  22  23  24  25 0
 3-21G
 ****
 27  28  29  34  36  39  40  41  42  43  44  45  46 0
 3-21G
 ****


