%nproc=1
%NoSave
%Mem=1900MB
#P OB98/GEN NMR

erre ene a

0 1
  C     -252.643     235.127    -106.772
  O     -253.834     234.774    -106.097
  H     -251.840     235.234    -106.036
  H     -252.774     236.084    -107.290
  H     -252.365     234.350    -107.489
  P     -255.133     234.527    -107.008
  C     -255.387     237.103    -107.292
  O     -255.291     235.833    -107.932
  C     -256.121     238.083    -108.207
  O     -255.330     238.322    -109.390
  C     -257.473     237.580    -108.709
  O     -258.491     237.726    -107.735
  C     -257.676     238.458    -109.939
  O     -258.216     239.739    -109.588
  C     -256.242     238.628    -110.468
  N     -257.957     237.199    -115.054
  C     -258.394     238.128    -114.174
  N     -257.867     238.457    -112.974
  C     -256.767     237.726    -112.722
  C     -256.211     236.737    -113.519
  C     -256.846     236.479    -114.741
  N     -256.427     235.511    -115.616
  N     -255.111     236.181    -112.895
  C     -255.003     236.817    -111.748
  N     -255.978     237.767    -111.603
  O     -256.337     234.657    -105.956
  O     -255.162     233.223    -107.736
  H     -259.084     239.571    -109.170
  H     -256.583     233.770    -105.631
  H     -259.288     238.674    -114.470
  H     -254.243     236.633    -110.992
  H     -256.037     239.657    -110.784
  H     -258.364     237.997    -110.651
  H     -257.392     236.533    -109.034
  H     -256.237     239.041    -107.674
  H     -254.384     237.485    -107.086
  H     -255.925     236.983    -106.342
  H     -256.947     235.363    -116.470
  H     -255.669     234.893    -115.347
  P     -259.849     236.901    -107.915
  C     -261.376     238.961    -108.365
  O     -260.814     237.764    -108.871
  O     -260.546     237.009    -106.473
  O     -259.665     235.481    -108.341
  H     -260.396     236.186    -105.967
  H     -261.988     239.413    -109.117
  H     -260.592     239.635    -108.090
  H     -261.973     238.739    -107.505

 6  7  8  9  10  11  12  13  14  15  25  28  32  33  34  35 0
 6-311+G(2d,p)
 ****
 36  37  40 0
 6-311+G(2d,p)
 ****
 1  2  3  4  5  16  17  18  19  20  21  22  23  24 0
 3-21G
 ****
 26  27  29  30  31  38  39 41  42  43  44  45  46  47  48 0
 3-21G
 ****


