%nproc=1
%NoSave
%Mem=1900MB
#P OB98/GEN NMR

erre ene a

0 1
  C     -214.298     338.489    -525.449
  O     -214.202     337.495    -524.440
  P     -213.475     336.110    -524.840
  C     -214.092     334.133    -526.407
  O     -214.548     335.242    -525.653
  C     -215.212     333.583    -527.303
  O     -215.628     334.591    -528.235
  C     -214.827     332.375    -528.128
  O     -214.791     331.194    -527.337
  C     -215.952     332.401    -529.173
  O     -217.147     331.844    -528.627
  C     -216.115     333.910    -529.419
  N     -216.224     334.394    -534.525
  C     -217.087     333.853    -533.645
  N     -216.982     333.731    -532.306
  C     -215.833     334.265    -531.880
  C     -214.826     334.840    -532.650
  C     -215.057     334.896    -534.032
  N     -214.156     335.464    -534.924
  N     -213.784     335.262    -531.861
  C     -214.145     334.953    -530.637
  N     -215.379     334.367    -530.578
  O     -213.365     335.348    -523.440
  O     -212.139     336.277    -525.505
  H     -217.000     330.877    -528.526
  H     -212.551     334.809    -523.395
  H     -218.011     333.448    -534.087
  H     -213.554     335.147    -529.740
  H     -217.163     334.193    -529.558
  H     -215.701     331.825    -530.074
  H     -213.854     332.520    -528.617
  H     -216.069     333.343    -526.642
  H     -213.756     333.336    -525.732
  H     -214.325     335.329    -535.903
  H     -213.246     335.707    -534.575
  H     -213.219     334.440    -527.019
  P     -213.891     329.979    -527.873
  C     -213.903     329.005    -530.259
  O     -214.685     329.449    -529.160
  O     -214.179     328.844    -526.772
  O     -212.439     330.322    -528.082
  H     -215.143     328.743    -526.614
  H     -214.558     328.634    -531.039
  H     -213.220     328.203    -529.940
  H     -213.315     329.840    -530.658
  H     -214.797     339.350    -525.055
  H     -214.853     338.103    -526.278
  H     -213.316     338.764    -525.774

 3  4  5  6  7  8  9  10  11  12  22  25  29  30  31  32 0
 6-311+G(2d,p)
 ****
 33  36  37 0
 6-311+G(2d,p)
 ****
 1  2  13  14  15  16  17  18  19  20  21  23  24  26 0
 3-21G
 ****
 27  28  34  35  38  39  40  41  42  43  44  45  46  47  48 0
 3-21G
 ****


