%nproc=1
%NoSave
%Mem=1900MB
#P OB98/GEN NMR

erre ene a

0 1
  C      107.752      36.301       4.176
  O      108.103      37.434       4.942
  H      107.871      36.544       3.117
  H      106.707      36.039       4.362
  H      108.392      35.448       4.414
  P      108.365      37.255       6.511
  C      110.670      38.416       6.455
  O      109.345      38.440       6.967
  C      111.328      39.797       6.562
  O      110.602      40.745       5.742
  C      111.261      40.313       8.005
  O      112.342      41.190       8.311
  C      109.961      41.102       8.019
  O      109.907      42.067       9.067
  C      109.967      41.701       6.612
  N      106.176      45.100       6.412
  C      107.333      45.128       7.164
  N      107.496      46.190       7.985
  N      108.245      44.191       7.124
  C      107.917      43.153       6.316
  C      106.787      43.000       5.544
  C      105.806      44.062       5.566
  O      104.750      44.083       4.936
  N      106.796      41.801       4.871
  C      107.923      41.228       5.240
  N      108.646      42.015       6.106
  O      109.316      35.968       6.594
  O      107.140      37.087       7.358
  H      108.992      42.403       9.107
  H      109.230      35.536       7.460
  H      105.514      45.856       6.469
  H      108.267      40.253       4.908
  H      110.559      42.624       6.591
  H      109.137      40.400       8.182
  H      106.748      46.838       8.178
  H      111.246      39.500       8.729
  H      108.176      46.083       8.742
  H      112.353      39.759       6.173
  H      110.606      38.111       5.404
  H      111.265      37.665       6.980
  P      113.385      40.717       9.433
  C      115.471      41.717       8.193
  O      114.662      41.680       9.356
  O      113.917      39.312       8.876
  O      112.790      40.592      10.796
  H      113.522      38.578       9.387
  H      116.268      42.416       8.335
  H      114.878      42.018       7.355
  H      115.878      40.744       8.010

 6  7  8  9  10  11  12  13  14  15  26  29  33  34 0
 6-311+G(2d,p)
 ****
 36  38  39  40  41 0
 6-311+G(2d,p)
 ****
 1  2  3  4  5  16  17  18  19  20  21  22  23  24  25 0
 3-21G
 ****
 27  28  30  31  32  35  37  42  43  44  45  46  47 0
 3-21G
 ****
 48  49 0
 3-21G
 ****


