%nproc=1
%NoSave
%Mem=1900MB
#P OB98/GEN NMR

erre ene a

0 1
  C      -28.320      94.461    -363.561
  O      -28.422      93.842    -364.834
  P      -29.853      93.890    -365.563
  C      -30.659      94.088    -368.031
  O      -29.574      94.171    -367.115
  C      -30.252      94.675    -369.383
  O      -29.908      96.066    -369.234
  C      -29.032      94.020    -370.017
  O      -29.360      92.759    -370.580
  C      -28.641      95.089    -371.031
  O      -29.489      95.005    -372.188
  C      -28.927      96.385    -370.256
  N      -25.092      99.745    -370.740
  C      -26.100      99.403    -371.570
  N      -27.070      98.484    -371.381
  C      -26.934      97.894    -370.182
  C      -25.946      98.123    -369.240
  C      -24.991      99.102    -369.554
  N      -23.962      99.445    -368.703
  N      -26.119      97.310    -368.140
  C      -27.201      96.609    -368.409
  N      -27.737      96.934    -369.625
  O      -30.480      95.264    -365.044
  O      -30.743      92.721    -365.276
  H      -29.193      94.234    -372.714
  H      -31.450      95.191    -364.949
  H      -26.136      99.939    -372.517
  H      -27.633      95.860    -367.756
  H      -29.356      97.172    -370.892
  H      -27.603      94.995    -371.377
  H      -28.236      93.899    -369.275
  H      -31.118      94.605    -370.056
  H      -31.511      94.654    -367.641
  H      -23.238     100.048    -369.067
  H      -23.805      98.867    -367.886
  H      -30.958      93.041    -368.134
  P      -28.160      91.899    -371.209
  C      -27.937      89.407    -371.791
  O      -28.659      90.378    -371.052
  O      -27.045      92.020    -370.068
  O      -27.741      92.310    -372.576
  H      -27.407      91.829    -369.184
  H      -28.345      88.417    -371.556
  H      -26.881      89.432    -371.518
  H      -28.051      89.589    -372.865
  H      -27.321      94.356    -363.192
  H      -29.002      93.994    -362.882
  H      -28.560      95.500    -363.649

 3  4  5  6  7  8  9  10  11  12  22  25  29  30  31  32 0
 6-311+G(2d,p)
 ****
 33  36  37 0
 6-311+G(2d,p)
 ****
 1  2  13  14  15  16  17  18  19  20  21  23  24  26 0
 3-21G
 ****
 27  28  34  35  38  39  40  41  42  43  44  45  46  47  48 0
 3-21G
 ****


