%nproc=1
%NoSave
%Mem=1900MB
#P OB98/GEN NMR

erre ene a

0 1
  C      552.255     255.854     590.326
  O      551.082     256.529     590.734
  H      552.249     255.762     589.237
  H      552.288     254.848     590.763
  H      553.144     256.419     590.624
  P      550.828     256.754     592.301
  C      549.303     254.682     592.547
  O      550.533     255.302     592.917
  C      548.430     254.458     593.785
  O      547.051     254.288     593.406
  C      548.806     253.216     594.599
  O      549.911     253.496     595.451
  C      547.518     252.992     595.371
  O      547.425     253.938     596.454
  C      546.446     253.308     594.304
  N      542.802     249.839     593.646
  C      542.975     250.769     594.652
  N      542.051     250.746     595.651
  N      543.955     251.625     594.697
  C      544.839     251.488     593.677
  C      544.788     250.587     592.627
  C      543.656     249.690     592.556
  O      543.456     248.865     591.670
  N      545.909     250.681     591.845
  C      546.608     251.658     592.378
  N      546.006     252.178     593.503
  O      549.808     257.787     592.667
  O      552.275     257.106     592.886
  H      546.486     253.980     596.717
  H      552.429     258.071     592.896
  H      542.031     249.198     593.667
  H      547.542     252.040     591.998
  H      545.560     253.769     594.732
  H      547.456     251.990     595.805
  H      541.361     250.016     595.745
  H      548.998     252.348     593.961
  H      542.196     251.382     596.429
  H      548.490     255.367     594.405
  H      549.547     253.726     592.077
  H      548.763     255.302     591.825
  P      551.024     252.378     595.775
  C      550.133     252.161     598.198
  O      550.412     251.505     596.973
  O      552.391     252.923     596.021
  O      550.931     251.367     594.544
  H      551.481     251.658     593.758
  H      549.732     251.457     598.897
  H      549.421     252.942     598.030
  H      551.035     252.580     598.592

 6  7  8  9  10  11  12  13  14  15  26  29  33  34 0
 6-311+G(2d,p)
 ****
 36  38  39  40  41 0
 6-311+G(2d,p)
 ****
 1  2  3  4  5  16  17  18  19  20  21  22  23  24  25 0
 3-21G
 ****
 27  28  30  31  32  35  37  42  43  44  45  46  47 0
 3-21G
 ****
 48  49 0
 3-21G
 ****


