%nproc=1
%NoSave
%Mem=1900MB
#P OB98/GEN NMR

erre ene a

0 1
  C      -58.999     255.030     -51.711
  O      -57.711     255.594     -51.636
  P      -56.525     254.985     -50.761
  C      -56.490     252.836     -52.249
  O      -56.526     253.392     -50.941
  C      -57.031     251.398     -52.250
  O      -57.093     250.930     -53.622
  C      -56.095     250.442     -51.494
  O      -56.769     249.497     -50.673
  C      -55.203     249.894     -52.600
  O      -54.558     248.676     -52.259
  C      -56.172     249.832     -53.776
  N      -54.803     247.318     -57.973
  C      -55.639     246.913     -56.953
  N      -56.008     245.615     -56.968
  N      -56.042     247.705     -55.993
  C      -55.500     248.943     -56.049
  C      -54.662     249.458     -57.011
  C      -54.251     248.584     -58.083
  O      -53.420     248.865     -58.946
  N      -54.258     250.731     -56.706
  C      -54.824     250.978     -55.542
  N      -55.561     249.908     -55.086
  O      -56.358     255.537     -49.384
  O      -55.230     255.419     -51.622
  H      -53.842     248.533     -52.905
  H      -54.508     255.593     -50.986
  H      -54.463     246.637     -58.642
  H      -54.711     251.893     -54.974
  H      -56.752     248.906     -53.768
  H      -54.414     250.631     -52.782
  H      -55.597     244.950     -57.607
  H      -55.475     250.997     -50.782
  H      -56.407     245.239     -56.111
  H      -58.049     251.396     -51.849
  H      -55.439     252.843     -52.558
  H      -57.050     253.460     -52.948
  P      -56.369     248.964     -49.224
  C      -57.184     251.271     -48.453
  O      -56.270     250.214     -48.227
  O      -54.846     248.498     -49.358
  O      -57.211     247.838     -48.719
  H      -54.708     247.679     -48.846
  H      -56.840     252.153     -47.907
  H      -58.171     250.987     -48.085
  H      -57.243     251.512     -49.519
  H      -59.610     255.622     -52.360
  H      -59.435     255.006     -50.734
  H      -58.930     254.034     -52.095

 3  4  5  6  7  8  9  10  11  12  23  26  30  31 0
 6-311+G(2d,p)
 ****
 33  35  36  37  38 0
 6-311+G(2d,p)
 ****
 1  2  13  14  15  16  17  18  19  20  21  22  24  25 0
 3-21G
 ****
 27  28  29  32  34  39  40  41  42  43  44  45  46  47  48  49 0
 3-21G
 ****


