%nproc=1
%NoSave
%Mem=1900MB
#P OB98/GEN NMR

erre ene a

0 1
  C       43.562     -62.391     126.210
  O       44.369     -62.086     125.070
  P       43.600     -61.794     123.691
  C       42.760     -63.154     121.652
  O       43.469     -63.176     122.882
  C       41.944     -64.435     121.455
  O       42.802     -65.611     121.512
  C       40.847     -64.634     122.505
  O       39.746     -65.294     121.866
  C       41.486     -65.596     123.488
  O       40.508     -66.256     124.288
  C       42.271     -66.487     122.527
  N       43.326     -69.909     126.164
  C       42.161     -69.390     125.723
  N       41.966     -68.461     124.762
  C       43.138     -68.104     124.208
  C       44.405     -68.539     124.559
  C       44.480     -69.488     125.592
  N       45.668     -69.999     126.060
  N       45.365     -67.906     123.794
  C       44.687     -67.100     123.002
  N       43.338     -67.206     123.193
  O       44.674     -60.961     122.845
  O       42.328     -61.031     123.860
  H       40.965     -66.930     124.834
  H       44.401     -60.027     122.789
  H       41.264     -69.764     126.211
  H       45.118     -66.420     122.284
  H       41.634     -67.236     122.037
  H       42.165     -65.049     124.156
  H       40.501     -63.713     122.984
  H       41.494     -64.407     120.455
  H       43.461     -63.044     120.819
  H       45.635     -70.655     126.826
  H       46.535     -69.659     125.675
  H       42.120     -62.264     121.625
  P       38.288     -64.698     122.159
  C       36.297     -65.466     123.634
  O       37.502     -65.823     122.986
  O       37.577     -64.714     120.725
  O       38.297     -63.333     122.766
  H       36.879     -64.036     120.689
  H       35.578     -66.282     123.514
  H       35.861     -64.551     123.222
  H       36.493     -65.322     124.699
  H       44.192     -62.563     127.057
  H       42.982     -63.268     126.012
  H       42.907     -61.569     126.414

 3  4  5  6  7  8  9  10  11  12  22  25  29  30  31  32 0
 6-311+G(2d,p)
 ****
 33  36  37 0
 6-311+G(2d,p)
 ****
 1  2  13  14  15  16  17  18  19  20  21  23  24  26 0
 3-21G
 ****
 27  28  34  35  38  39  40  41  42  43  44  45  46  47  48 0
 3-21G
 ****


