%nproc=1
%NoSave
%Mem=1900MB
#P OB98/GEN NMR

erre ene a

0 1
  C      224.949    -361.570     106.141
  O      225.450    -362.552     107.028
  H      225.344    -360.593     106.435
  H      223.857    -361.539     106.192
  H      225.267    -361.789     105.119
  P      225.011    -364.070     106.741
  C      227.453    -364.963     106.889
  O      226.138    -364.989     107.419
  C      228.393    -365.812     107.761
  O      228.598    -365.126     109.030
  C      227.836    -367.209     108.090
  O      228.938    -368.118     108.251
  C      227.182    -366.975     109.442
  O      226.940    -368.196     110.094
  C      228.225    -366.052     110.073
  N      227.260    -366.451     115.067
  C      227.844    -367.300     114.192
  N      228.069    -367.117     112.875
  C      227.653    -365.892     112.488
  C      227.046    -364.923     113.263
  C      226.839    -365.242     114.617
  N      226.232    -364.389     115.511
  N      226.742    -363.811     112.500
  C      227.169    -364.105     111.287
  N      227.727    -365.351     111.235
  O      225.277    -364.233     105.171
  O      223.607    -364.419     107.111
  H      226.590    -368.053     110.997
  H      224.464    -364.030     104.671
  H      228.162    -368.257     114.599
  H      227.090    -363.462     110.416
  H      229.127    -366.602     110.377
  H      226.219    -366.463     109.331
  H      227.152    -367.595     107.328
  H      229.378    -365.876     107.277
  H      227.803    -363.924     106.870
  H      227.446    -365.364     105.871
  H      226.100    -364.706     116.455
  H      225.884    -363.501     115.182
  P      229.284    -369.150     107.061
  C      231.866    -368.776     107.032
  O      230.796    -369.689     107.208
  O      229.393    -368.171     105.795
  O      228.260    -370.207     106.814
  H      228.900    -368.555     105.044
  H      232.797    -369.288     107.161
  H      231.787    -367.991     107.755
  H      231.822    -368.360     106.047

 6  7  8  9  10  11  12  13  14  15  25  28  32  33  34  35 0
 6-311+G(2d,p)
 ****
 36  37  40 0
 6-311+G(2d,p)
 ****
 1  2  3  4  5  16  17  18  19  20  21  22  23  24 0
 3-21G
 ****
 26  27  29  30  31  38  39 41  42  43  44  45  46  47  48 0
 3-21G
 ****


