%nproc=1
%NoSave
%Mem=1900MB
#P OB98/GEN NMR

erre ene a

0 1
  C     -825.724     639.964     737.754
  O     -824.549     639.770     738.526
  P     -824.590     639.918     740.127
  C     -823.036     639.242     742.068
  O     -823.224     639.252     740.654
  C     -821.755     638.447     742.422
  O     -821.890     637.071     742.013
  C     -820.482     638.967     741.773
  O     -820.029     640.138     742.424
  C     -819.576     637.770     741.902
  O     -818.970     637.717     743.190
  C     -820.570     636.588     741.713
  N     -820.491     636.006     740.369
  C     -819.439     635.107     740.148
  O     -818.629     634.867     741.056
  N     -819.306     634.526     738.903
  C     -820.130     634.857     737.964
  N     -819.949     634.258     736.753
  C     -821.224     635.818     738.135
  C     -821.335     636.351     739.342
  O     -825.842     639.419     740.777
  O     -824.338     641.475     740.337
  H     -818.626     638.620     743.380
  H     -825.136     642.015     740.118
  H     -821.890     636.057     737.327
  H     -822.124     637.092     739.585
  H     -820.351     635.791     742.428
  H     -818.759     637.773     741.144
  H     -820.672     639.174     740.693
  H     -821.651     638.477     743.525
  H     -819.159     633.622     736.664
  H     -823.899     638.753     742.520
  H     -820.506     634.468     735.935
  H     -822.963     640.276     742.433
  P     -819.528     641.393     741.546
  C     -819.506     643.955     741.822
  O     -820.103     642.717     742.232
  O     -819.755     641.281     740.074
  O     -817.957     641.480     741.889
  H     -817.468     641.620     741.042
  H     -820.187     644.770     742.098
  H     -819.321     643.971     740.762
  H     -818.566     644.072     742.374
  H     -825.497     639.824     736.718
  H     -826.092     640.957     737.907
  H     -826.469     639.257     738.055

 3  4  5  6  7  8  9  10  11  12  13  23  27  28  29  30  32 0
 6-311+G(2d,p)
 ****
 34  35 0
 6-311+G(2d,p)
 ****
 1  2  14  15  16  17  18  19  20  21  22  24  25  26 0
 3-21G
 ****
 31  33  36  37  38  39  40  41  42  43  44  45  46 0
 3-21G
 ****


