%nproc=1
%NoSave
%Mem=1900MB
#P OB98/GEN NMR

erre ene a

0 1
  C      216.270    -404.785    -110.367
  O      214.876    -404.631    -110.550
  P      213.910    -405.418    -109.531
  C      213.163    -407.897    -109.277
  O      213.866    -406.933    -110.056
  C      212.370    -408.836    -110.179
  O      211.247    -408.138    -110.747
  C      213.164    -409.368    -111.357
  O      214.026    -410.415    -110.948
  C      212.044    -409.832    -112.289
  O      211.626    -411.168    -111.975
  C      210.917    -408.817    -111.984
  N      210.699    -407.874    -113.068
  C      210.071    -408.390    -114.207
  O      209.753    -409.580    -114.254
  N      209.850    -407.556    -115.272
  C      210.237    -406.315    -115.212
  N      209.988    -405.535    -116.301
  C      210.922    -405.740    -114.039
  C      211.125    -406.569    -113.016
  O      212.462    -404.849    -109.900
  O      214.242    -405.237    -108.090
  H      212.444    -411.707    -111.959
  H      211.859    -404.908    -109.134
  H      211.223    -404.699    -114.037
  H      211.626    -406.225    -112.116
  H      209.970    -409.346    -111.799
  H      212.354    -409.833    -113.340
  H      213.735    -408.570    -111.840
  H      211.991    -409.663    -109.566
  H      209.523    -405.958    -117.090
  H      212.475    -407.383    -108.607
  H      210.231    -404.550    -116.338
  H      213.889    -408.456    -108.669
  P      215.543    -410.380    -111.474
  C      216.628    -410.280    -113.793
  O      215.419    -410.425    -113.071
  O      216.049    -411.859    -111.134
  O      216.436    -409.325    -110.906
  H      217.007    -411.927    -111.319
  H      216.434    -410.484    -114.851
  H      217.378    -410.987    -113.432
  H      217.000    -409.256    -113.703
  H      216.792    -404.213    -111.106
  H      216.531    -405.818    -110.466
  H      216.542    -404.440    -109.391

 3  4  5  6  7  8  9  10  11  12  13  21  23  27  28  29  30  32 0
 6-311+G(2d,p)
 ****
 34  35 0
 6-311+G(2d,p)
 ****
 1  2  14  15  16  17  18  19  20  22  24  25  26 0
 3-21G
 ****
 31  33  36  37  38  39  40  41  42  43  44  45  46 0
 3-21G
 ****


