%nproc=1
%NoSave
%Mem=1900MB
#P OB98/GEN NMR

erre ene a

0 1
  C       16.267     104.305      21.912
  O       16.007     104.814      20.618
  H       15.318     104.027      22.376
  H       16.752     105.067      22.529
  H       16.900     103.416      21.845
  P       17.277     105.317      19.775
  C       18.932     107.282      20.088
  O       17.690     106.704      20.466
  C       18.936     108.781      20.378
  O       18.023     109.460      19.498
  C       18.516     109.147      21.796
  O       19.616     109.033      22.684
  C       18.102     110.599      21.609
  O       19.272     111.440      21.610
  C       17.463     110.594      20.209
  N       13.049     113.146      19.609
  C       14.321     113.577      19.748
  N       15.438     112.847      19.959
  C       15.148     111.536      20.012
  C       13.896     110.950      19.890
  C       12.811     111.816      19.672
  N       11.513     111.373      19.533
  N       13.983     109.579      20.003
  C       15.271     109.338      20.131
  N       16.015     110.490      20.180
  O       17.101     105.344      18.295
  O       18.410     104.317      20.306
  H       19.808     111.177      20.838
  H       18.323     104.181      21.266
  H       14.462     114.652      19.685
  H       15.719     108.351      20.172
  H       17.721     111.496      19.642
  H       17.452     110.957      22.409
  H       17.648     108.565      22.126
  H       19.942     109.163      20.160
  H       19.120     107.112      19.021
  H       10.783     112.066      19.575
  H       11.326     110.396      19.710
  H       19.720     106.781      20.661
  P       19.391     108.731      24.245
  C       18.032     110.000      26.021
  O       18.847     110.108      24.859
  O       20.567     108.132      24.934
  O       18.102     107.787      24.282
  H       18.042     107.338      25.147
  H       17.731     110.977      26.337
  H       18.588     109.527      26.804
  H       17.165     109.415      25.795

 6  7  8  9  10  11  12  13  14  15  25  28  32  33  34  35 0
 6-311+G(2d,p)
 ****
 36  39  40 0
 6-311+G(2d,p)
 ****
 1  2  3  4  5  16  17  18  19  20  21  22  23  24 0
 3-21G
 ****
 26  27  29  30  31  37  38  41  42  43  44  45  46  47 0
 3-21G
 ****
 48 0
 3-21G
 ****


