%nproc=1
%NoSave
%Mem=1900MB
#P OB98/GEN NMR

erre ene a

0 1
  C      136.805    -147.624     -26.692
  O      135.758    -146.716     -26.406
  H      137.247    -147.959     -25.751
  H      137.574    -147.130     -27.289
  H      136.420    -148.497     -27.232
  P      134.813    -146.271     -27.622
  C      132.366    -146.836     -26.935
  O      133.398    -145.858     -26.977
  C      131.818    -146.956     -25.511
  O      132.867    -147.520     -24.660
  C      131.396    -145.619     -24.885
  O      130.246    -145.849     -24.059
  C      132.577    -145.258     -24.001
  O      132.256    -144.372     -22.936
  C      133.007    -146.651     -23.521
  N      134.382    -146.669     -23.013
  C      134.556    -146.682     -21.629
  O      133.642    -146.761     -20.808
  N      135.856    -146.592     -21.200
  C      136.965    -146.474     -21.988
  O      138.106    -146.374     -21.539
  C      136.717    -146.456     -23.438
  C      135.461    -146.551     -23.875
  O      134.494    -147.658     -28.354
  O      135.390    -145.254     -28.552
  H      135.166    -147.847     -29.041
  H      133.062    -144.278     -22.382
  H      135.999    -146.600     -20.198
  H      137.571    -146.354     -24.094
  H      135.237    -146.520     -24.943
  H      132.329    -147.014     -22.739
  H      133.370    -144.792     -24.604
  H      131.174    -144.833     -25.617
  H      130.987    -147.672     -25.512
  H      132.768    -147.801     -27.251
  H      131.565    -146.544     -27.626
  P      129.219    -144.629     -23.865
  C      127.442    -145.579     -25.550
  O      127.769    -145.227     -24.206
  O      129.581    -143.712     -25.130
  O      129.350    -143.959     -22.535
  H      129.829    -144.238     -25.916
  H      126.442    -145.957     -25.586
  H      128.120    -146.330     -25.897
  H      127.519    -144.713     -26.174

 6  7  8  9  10  11  12  13  14  15  16  27  31  32  33  34  35 0
 6-311+G(2d,p)
 ****
 36  37 0
 6-311+G(2d,p)
 ****
 1  2  3  4  5  17  18  19  20  21  22  23  24  25 0
 3-21G
 ****
 26  28  29  30  38  39  40  41  42  43  44  45 0
 3-21G
 ****


