%nproc=1
%NoSave
%Mem=1900MB
#P OB98/GEN NMR

erre ene a

0 1
  C      175.862    -235.701     453.721
  O      176.070    -237.097     453.841
  P      174.815    -238.002     454.283
  C      176.010    -238.523     456.532
  O      174.823    -238.069     455.890
  C      175.693    -239.640     457.527
  O      176.928    -240.339     457.855
  C      175.070    -239.167     458.854
  O      174.153    -240.180     459.266
  C      176.279    -239.106     459.768
  O      175.965    -239.069     461.152
  C      177.036    -240.347     459.296
  N      180.238    -240.664     463.278
  C      178.887    -240.767     463.196
  N      178.109    -240.681     462.095
  C      178.855    -240.471     460.996
  C      180.229    -240.329     460.931
  C      180.930    -240.432     462.144
  N      182.309    -240.313     462.227
  N      180.638    -240.101     459.634
  C      179.527    -240.109     458.926
  N      178.424    -240.347     459.708
  O      175.263    -239.476     453.849
  O      173.505    -237.609     453.666
  H      176.741    -239.348     461.679
  H      174.509    -239.982     453.493
  H      178.367    -240.939     464.130
  H      179.469    -239.928     457.862
  H      176.581    -241.271     459.663
  H      176.853    -238.200     459.548
  H      174.535    -238.214     458.765
  H      175.031    -240.363     457.039
  H      176.453    -237.688     457.083
  H      182.688    -240.204     463.156
  H      182.786    -239.942     461.420
  H      176.727    -238.855     455.779
  P      172.928    -239.781     460.225
  C      174.200    -241.049     462.071
  O      173.566    -239.847     461.703
  O      172.064    -241.127     460.196
  O      172.181    -238.551     459.853
  H      172.613    -241.913     460.385
  H      174.668    -240.923     463.048
  H      174.974    -241.314     461.340
  H      173.458    -241.855     462.136
  H      176.775    -235.229     453.423
  H      175.547    -235.305     454.664
  H      175.107    -235.515     452.986

 3  4  5  6  7  8  9  10  11  12  22  25  29  30  31  32 0
 6-311+G(2d,p)
 ****
 33  36  37 0
 6-311+G(2d,p)
 ****
 1  2  13  14  15  16  17  18  19  20  21  23  24  26 0
 3-21G
 ****
 27  28  34  35  38  39  40  41  42  43  44  45  46  47  48 0
 3-21G
 ****


