%nproc=1
%NoSave
%Mem=1900MB
#P OB98/GEN NMR

erre ene a

0 1
  C       -1.620      66.496     -64.744
  O       -1.749      67.009     -66.054
  H       -1.275      65.460     -64.807
  H       -2.584      66.516     -64.228
  H       -0.885      67.079     -64.184
  P       -2.301      68.510     -66.185
  C       -4.791      68.034     -65.717
  O       -3.572      68.556     -65.203
  C       -5.980      68.584     -64.930
  O       -7.192      68.329     -65.688
  C       -6.154      67.937     -63.552
  O       -6.628      68.920     -62.631
  C       -7.246      66.908     -63.789
  O       -7.929      66.556     -62.590
  C       -8.104      67.622     -64.831
  N      -11.589      63.934     -64.426
  C      -11.095      64.814     -63.529
  N      -10.180      65.785     -63.731
  C       -9.816      65.832     -65.025
  C      -10.232      65.004     -66.051
  C      -11.159      64.005     -65.708
  N      -11.642      63.081     -66.604
  N       -9.594      65.340     -67.229
  C       -8.815      66.361     -66.921
  N       -8.902      66.679     -65.594
  O       -2.555      68.985     -67.575
  O       -1.204      69.339     -65.366
  H       -8.809      66.195     -62.828
  H       -0.995      68.911     -64.514
  H      -11.478      64.722     -62.516
  H       -8.164      66.887     -67.611
  H       -8.796      68.346     -64.383
  H       -6.810      65.993     -64.206
  H       -5.239      67.483     -63.172
  H       -5.878      69.672     -64.849
  H       -4.787      66.940     -65.658
  H      -12.307      62.400     -66.273
  H      -11.340      63.119     -67.566
  H       -4.863      68.325     -66.771
  P       -5.593      69.594     -61.610
  C       -6.321      68.410     -59.441
  O       -5.299      68.561     -60.416
  O       -5.924      70.981     -61.175
  O       -4.216      69.565     -62.433
  H       -3.746      70.411     -62.299
  H       -6.009      67.700     -58.704
  H       -7.216      68.063     -59.913
  H       -6.508      69.353     -58.971

 6  7  8  9  10  11  12  13  14  15  25  28  32  33  34  35 0
 6-311+G(2d,p)
 ****
 36  39  40 0
 6-311+G(2d,p)
 ****
 1  2  3  4  5  16  17  18  19  20  21  22  23  24 0
 3-21G
 ****
 26  27  29  30  31  37  38  41  42  43  44  45  46  47 0
 3-21G
 ****
 48 0
 3-21G
 ****


