%nproc=1
%NoSave
%Mem=1900MB
#P OB98/GEN NMR

erre ene a

0 1
  C       71.972    -133.114     -34.189
  O       73.127    -132.645     -33.524
  H       72.213    -134.053     -34.694
  H       71.664    -132.383     -34.941
  H       71.156    -133.290     -33.484
  P       72.923    -131.514     -32.404
  C       72.257    -129.005     -32.433
  O       72.346    -130.218     -33.164
  C       71.119    -128.136     -32.973
  O       71.634    -127.329     -34.079
  C       69.916    -128.936     -33.501
  O       68.712    -128.224     -33.194
  C       70.118    -128.894     -35.006
  O       68.904    -129.094     -35.723
  C       70.714    -127.499     -35.173
  N       70.274    -125.251     -39.641
  C       69.569    -125.065     -38.470
  N       68.545    -124.187     -38.502
  N       69.840    -125.694     -37.354
  C       70.904    -126.529     -37.452
  C       71.680    -126.806     -38.551
  C       71.359    -126.118     -39.787
  O       71.933    -126.255     -40.860
  N       72.622    -127.760     -38.257
  C       72.402    -128.073     -36.991
  N       71.367    -127.354     -36.461
  O       74.428    -131.104     -32.045
  O       72.156    -131.940     -31.198
  H       69.074    -128.917     -36.670
  H       74.730    -131.605     -31.263
  H       70.014    -124.756     -40.475
  H       72.941    -128.819     -36.428
  H       69.954    -126.708     -35.108
  H       70.834    -129.667     -35.311
  H       68.293    -123.644     -39.312
  H       69.853    -129.958     -33.109
  H       68.040    -124.009     -37.639
  H       70.806    -127.440     -32.187
  H       73.201    -128.455     -32.530
  H       72.093    -129.232     -31.373
  P       68.154    -128.302     -31.692
  C       66.937    -130.056     -30.199
  O       67.408    -129.707     -31.493
  O       66.949    -127.246     -31.700
  O       69.170    -127.963     -30.647
  H       66.884    -126.810     -30.831
  H       66.467    -131.017     -30.238
  H       66.229    -129.325     -29.868
  H       67.760    -130.089     -29.517

 6  7  8  9  10  11  12  13  14  15  26  29  33  34 0
 6-311+G(2d,p)
 ****
 36  38  39  40  41 0
 6-311+G(2d,p)
 ****
 1  2  3  4  5  16  17  18  19  20  21  22  23  24  25 0
 3-21G
 ****
 27  28  30  31  32  35  37  42  43  44  45  46  47 0
 3-21G
 ****
 48  49 0
 3-21G
 ****


