%nproc=1
%NoSave
%Mem=1900MB
#P OB98/GEN NMR

erre ene a

0 1
  C      649.681    -258.229      35.309
  O      649.597    -259.029      36.471
  H      648.926    -257.444      35.366
  H      649.499    -258.834      34.420
  H      650.670    -257.763      35.247
  P      650.558    -260.308      36.545
  C      651.168    -262.164      34.825
  O      650.192    -261.236      35.287
  C      650.478    -263.434      34.352
  O      649.636    -263.142      33.210
  C      651.437    -264.522      33.877
  O      652.020    -265.243      34.946
  C      650.504    -265.387      33.044
  O      649.786    -266.328      33.854
  C      649.547    -264.348      32.425
  N      649.854    -264.107      31.018
  C      649.426    -265.087      30.126
  O      648.819    -266.097      30.478
  N      649.745    -264.885      28.809
  C      650.487    -263.848      28.317
  O      650.784    -263.756      27.133
  C      650.930    -262.851      29.303
  C      650.604    -263.022      30.588
  O      649.988    -261.120      37.804
  O      652.008    -259.998      36.694
  H      650.597    -261.033      38.555
  H      650.460    -266.918      34.249
  H      649.437    -265.580      28.151
  H      651.518    -262.020      28.949
  H      650.926    -262.312      31.340
  H      648.511    -264.690      32.491
  H      651.053    -265.955      32.300
  H      652.202    -264.093      33.220
  H      649.839    -263.810      35.164
  H      651.856    -262.414      35.641
  H      651.742    -261.697      34.015
  P      653.430    -265.965      34.680
  C      654.082    -268.275      33.598
  O      653.082    -267.313      33.878
  O      653.795    -266.453      36.160
  O      654.436    -265.071      34.042
  H      652.995    -266.598      36.703
  H      653.650    -269.093      33.060
  H      654.499    -268.633      34.516
  H      654.853    -267.826      33.007

 6  7  8  9  10  11  12  13  14  15  16  27  31  32  33  34  35 0
 6-311+G(2d,p)
 ****
 36  37 0
 6-311+G(2d,p)
 ****
 1  2  3  4  5  17  18  19  20  21  22  23  24  25 0
 3-21G
 ****
 26  28  29  30  38  39  40  41  42  43  44  45 0
 3-21G
 ****


