%nproc=1
%NoSave
%Mem=1900MB
#P OB98/GEN NMR

erre ene a

0 1
  C      -94.258    -213.899    -260.908
  O      -93.977    -213.824    -262.308
  P      -92.921    -212.708    -262.794
  C      -94.730    -210.976    -263.552
  O      -93.682    -211.299    -262.654
  C      -94.892    -209.456    -263.683
  O      -95.437    -208.915    -262.439
  C      -93.596    -208.706    -263.989
  O      -93.936    -207.626    -264.877
  C      -93.180    -208.157    -262.634
  O      -92.308    -207.040    -262.752
  C      -94.553    -207.846    -262.026
  N      -94.516    -207.711    -260.576
  C      -93.858    -206.598    -260.061
  O      -93.257    -205.790    -260.768
  N      -93.868    -206.468    -258.695
  C      -94.395    -207.371    -257.815
  O      -94.382    -207.207    -256.598
  C      -94.974    -208.588    -258.408
  C      -95.006    -208.697    -259.739
  O      -92.875    -212.983    -264.365
  O      -91.609    -212.804    -262.086
  H      -93.731    -213.235    -264.744
  H      -91.470    -207.338    -263.151
  H      -93.426    -205.652    -258.305
  H      -95.347    -209.348    -257.738
  H      -95.401    -209.589    -260.211
  H      -94.952    -206.914    -262.454
  H      -92.670    -208.934    -262.060
  H      -92.836    -209.338    -264.457
  H      -95.637    -209.261    -264.468
  H      -95.671    -211.396    -263.186
  H      -94.527    -211.436    -264.522
  P      -93.229    -207.585    -266.328
  C      -91.659    -205.495    -266.134
  O      -91.795    -206.897    -266.127
  O      -94.093    -206.418    -267.022
  O      -93.269    -208.868    -267.091
  H      -94.200    -205.632    -266.455
  H      -90.665    -205.231    -265.753
  H      -92.413    -205.018    -265.494
  H      -91.755    -205.115    -267.155
  H      -94.970    -214.677    -260.728
  H      -94.659    -212.965    -260.574
  H      -93.355    -214.111    -260.374

 3  4  5  6  7  8  9  10  11  12  13  24  28  29  30  31  32 0
 6-311+G(2d,p)
 ****
 33  34 0
 6-311+G(2d,p)
 ****
 1  2  14  15  16  17  18  19  20  21  22  23  25  26  27 0
 3-21G
 ****
 35  36  37  38  39  40  41  42  43  44  45 0
 3-21G
 ****


