%nproc=1
%NoSave
%Mem=1900MB
#P OB98/GEN NMR

erre ene a

0 1
  C     -177.805    -126.444     -92.783
  O     -177.181    -127.692     -93.035
  P     -175.673    -127.891     -92.523
  C     -174.989    -128.349     -95.022
  O     -174.743    -127.660     -93.807
  C     -174.786    -127.410     -96.213
  O     -175.701    -126.297     -96.122
  C     -173.398    -126.787     -96.299
  O     -172.438    -127.704     -96.801
  C     -173.668    -125.590     -97.202
  O     -173.706    -126.002     -98.579
  C     -175.072    -125.154     -96.738
  N     -175.049    -124.009     -95.830
  C     -175.464    -122.792     -96.363
  O     -175.836    -122.659     -97.528
  N     -175.420    -121.722     -95.509
  C     -174.951    -121.734     -94.228
  O     -174.893    -120.736     -93.521
  C     -174.495    -123.041     -93.731
  C     -174.565    -124.101     -94.541
  O     -175.652    -129.471     -92.281
  O     -175.347    -127.062     -91.327
  H     -176.290    -129.933     -92.853
  H     -172.849    -126.435     -98.761
  H     -175.737    -120.833     -95.866
  H     -174.108    -123.089     -92.722
  H     -174.224    -125.069     -94.195
  H     -175.693    -124.894     -97.604
  H     -172.900    -124.813     -97.114
  H     -173.086    -126.435     -95.308
  H     -175.015    -127.966     -97.131
  H     -176.018    -128.720     -95.018
  H     -174.309    -129.205     -95.088
  P     -171.379    -128.289     -95.740
  C     -169.503    -127.121     -97.135
  O     -170.068    -127.378     -95.870
  O     -170.972    -129.670     -96.437
  O     -171.931    -128.430     -94.359
  H     -170.846    -129.587     -97.396
  H     -168.872    -126.232     -97.064
  H     -170.275    -126.946     -97.889
  H     -168.884    -127.970     -97.439
  H     -178.799    -126.456     -93.178
  H     -177.244    -125.663     -93.253
  H     -177.842    -126.270     -91.728

 3  4  5  6  7  8  9  10  11  12  13  24  28  29  30  31  32 0
 6-311+G(2d,p)
 ****
 33  34 0
 6-311+G(2d,p)
 ****
 1  2  14  15  16  17  18  19  20  21  22  23  25  26  27 0
 3-21G
 ****
 35  36  37  38  39  40  41  42  43  44  45 0
 3-21G
 ****


