%nproc=1
%NoSave
%Mem=1900MB
#P OB98/GEN NMR

erre ene a

0 1
  C       70.986    -168.333     207.262
  O       72.255    -168.765     206.819
  P       72.466    -169.719     205.557
  C       71.489    -172.048     204.946
  O       72.009    -171.207     205.967
  C       71.044    -173.424     205.467
  O       70.117    -173.247     206.559
  C       70.284    -174.186     204.374
  O       70.995    -174.913     203.393
  C       69.216    -174.979     205.115
  O       69.597    -176.337     205.340
  C       69.083    -174.234     206.450
  N       64.485    -174.537     208.571
  C       65.625    -175.266     208.855
  N       65.456    -176.330     209.673
  N       66.803    -174.988     208.363
  C       66.794    -173.954     207.484
  C       65.731    -173.151     207.137
  C       64.441    -173.446     207.718
  O       63.391    -172.876     207.424
  N       66.075    -172.248     206.161
  C       67.332    -172.529     205.892
  N       67.801    -173.585     206.643
  O       73.736    -169.548     204.788
  O       71.256    -169.245     204.597
  H       70.050    -176.659     204.535
  H       71.566    -169.321     203.673
  H       63.583    -174.848     208.916
  H       67.939    -172.028     205.144
  H       69.218    -174.927     207.293
  H       68.285    -175.009     204.539
  H       64.544    -176.658     209.949
  H       69.728    -173.435     203.798
  H       66.228    -176.979     209.766
  H       71.890    -173.977     205.884
  H       72.266    -172.159     204.182
  H       70.636    -171.556     204.464
  P       70.367    -175.629     202.106
  C       68.432    -177.257     201.716
  O       69.463    -176.857     202.601
  O       71.615    -176.360     201.414
  O       69.699    -174.708     201.136
  H       71.421    -176.523     200.471
  H       67.713    -177.872     202.264
  H       68.858    -177.853     200.903
  H       67.914    -176.387     201.299
  H       71.103    -167.705     208.121
  H       70.390    -169.183     207.520
  H       70.504    -167.783     206.481

 3  4  5  6  7  8  9  10  11  12  23  26  30  31 0
 6-311+G(2d,p)
 ****
 33  35  36  37  38 0
 6-311+G(2d,p)
 ****
 1  2  13  14  15  16  17  18  19  20  21  22  24  25 0
 3-21G
 ****
 27  28  29  32  34  39  40  41  42  43  44  45  46  47  48  49 0
 3-21G
 ****


