%nproc=1
%NoSave
%Mem=1900MB
#P OB98/GEN NMR

erre ene a

0 1
  C      -28.813     -48.654     189.646
  O      -27.559     -47.989     189.729
  P      -26.720     -48.000     191.098
  C      -25.269     -49.755     192.294
  O      -26.354     -49.534     191.398
  C      -25.662     -50.750     193.384
  O      -26.717     -50.169     194.188
  C      -26.182     -52.077     192.836
  O      -25.756     -53.135     193.701
  C      -27.695     -51.962     192.943
  O      -28.309     -53.258     193.044
  C      -27.843     -51.070     194.178
  N      -32.961     -51.197     193.745
  C      -32.036     -52.180     193.747
  N      -30.692     -52.073     193.845
  C      -30.326     -50.787     193.996
  C      -31.156     -49.677     194.013
  C      -32.538     -49.912     193.876
  N      -33.479     -48.911     193.882
  N      -30.419     -48.515     194.154
  C      -29.171     -48.925     194.244
  N      -29.065     -50.292     194.162
  O      -27.358     -47.279     192.237
  O      -25.309     -47.359     190.709
  H      -27.955     -53.802     192.312
  H      -24.982     -46.789     191.430
  H      -32.422     -53.192     193.668
  H      -28.313     -48.277     194.355
  H      -27.819     -51.657     195.106
  H      -28.090     -51.472     192.042
  H      -25.852     -52.272     191.808
  H      -24.800     -50.911     194.038
  H      -25.006     -48.798     192.757
  H      -34.453     -49.184     193.900
  H      -33.183     -47.978     194.153
  H      -24.403     -50.120     191.732
  P      -25.540     -54.573     193.002
  C      -23.734     -55.404     191.318
  O      -24.430     -54.313     191.876
  O      -26.831     -55.182     192.564
  O      -24.778     -55.369     194.164
  H      -24.307     -54.761     194.771
  H      -22.998     -55.025     190.604
  H      -24.426     -56.067     190.789
  H      -23.212     -55.967     192.100
  H      -29.215     -48.535     188.662
  H      -29.488     -48.232     190.361
  H      -28.679     -49.695     189.853

 3  4  5  6  7  8  9  10  11  12  22  25  29  30  31  32 0
 6-311+G(2d,p)
 ****
 33  36  37 0
 6-311+G(2d,p)
 ****
 1  2  13  14  15  16  17  18  19  20  21  23  24  26 0
 3-21G
 ****
 27  28  34  35  38  39  40  41  42  43  44  45  46  47  48 0
 3-21G
 ****


