%nproc=1
%NoSave
%Mem=1900MB
#P OB98/GEN NMR

erre ene a

0 1
  C     -259.956     430.984    -474.081
  O     -259.904     432.063    -473.172
  H     -261.000     430.805    -474.353
  H     -259.554     430.076    -473.623
  H     -259.396     431.222    -474.990
  P     -258.483     432.489    -472.562
  C     -258.803     434.826    -473.612
  O     -258.497     434.088    -472.433
  C     -259.195     436.264    -473.251
  O     -260.517     436.227    -472.660
  C     -258.232     436.898    -472.237
  O     -257.715     438.159    -472.665
  C     -259.022     436.865    -470.933
  O     -258.659     437.857    -469.995
  C     -260.478     436.941    -471.411
  N     -261.442     436.381    -470.467
  C     -261.912     437.222    -469.461
  O     -261.602     438.403    -469.321
  N     -262.801     436.652    -468.583
  C     -263.243     435.365    -468.609
  O     -264.048     434.912    -467.799
  C     -262.693     434.522    -469.677
  C     -261.831     435.058    -470.546
  O     -257.287     431.927    -473.255
  O     -258.556     432.005    -471.036
  H     -257.683     437.890    -469.962
  H     -258.047     431.180    -470.931
  H     -263.160     437.255    -467.858
  H     -263.014     433.489    -469.724
  H     -261.406     434.464    -471.350
  H     -260.766     437.975    -471.604
  H     -258.855     435.891    -470.454
  H     -257.330     436.285    -472.119
  H     -259.260     436.854    -474.172
  H     -259.631     434.324    -474.120
  H     -257.932     434.834    -474.275
  P     -256.476     438.344    -473.651
  C     -257.417     440.554    -474.709
  O     -256.361     439.898    -474.020
  O     -256.399     437.374    -474.783
  O     -255.200     438.083    -472.699
  H     -254.510     437.675    -473.261
  H     -257.158     441.580    -474.864
  H     -258.313     440.496    -474.127
  H     -257.575     440.079    -475.655

 6  7  8  9  10  11  12  13  14  15  16  26  31  32  33  34  35 0
 6-311+G(2d,p)
 ****
 36  37 0
 6-311+G(2d,p)
 ****
 1  2  3  4  5  17  18  19  20  21  22  23  24  25 0
 3-21G
 ****
 27  28  29  30  38  39  40  41  42  43  44  45 0
 3-21G
 ****


