%nproc=1
%NoSave
%Mem=1900MB
#P OB98/GEN NMR

erre ene a

0 1
  C      307.173    -169.333    -334.234
  O      307.416    -169.706    -335.576
  H      306.141    -169.587    -333.979
  H      307.310    -168.254    -334.107
  H      307.848    -169.876    -333.566
  P      308.868    -169.365    -336.167
  C      308.988    -171.612    -337.427
  O      308.948    -170.194    -337.543
  C      308.470    -172.266    -338.708
  O      307.019    -172.324    -338.642
  C      308.846    -171.504    -339.984
  O      309.092    -172.442    -341.036
  C      307.585    -170.720    -340.305
  O      307.504    -170.356    -341.679
  C      306.505    -171.690    -339.830
  N      302.090    -170.195    -341.876
  C      303.070    -171.007    -342.333
  N      304.209    -171.370    -341.710
  C      304.254    -170.855    -340.466
  C      303.333    -170.013    -339.864
  C      302.207    -169.670    -340.633
  N      301.218    -168.822    -340.194
  N      303.757    -169.660    -338.596
  C      304.911    -170.281    -338.434
  N      305.259    -171.001    -339.545
  O      310.011    -169.575    -335.232
  O      308.671    -167.863    -336.684
  H      307.627    -171.165    -342.219
  H      307.841    -167.766    -337.195
  H      302.928    -171.404    -343.339
  H      305.532    -170.230    -337.542
  H      306.284    -172.473    -340.575
  H      307.562    -169.796    -339.709
  H      309.712    -170.854    -339.857
  H      308.827    -173.303    -338.746
  H      308.377    -171.939    -336.572
  H      300.444    -168.633    -340.812
  H      301.281    -168.422    -339.264
  H      310.029    -171.906    -337.240
  P      310.576    -172.572    -341.633
  C      310.558    -175.141    -341.840
  O      310.656    -173.900    -342.531
  O      311.685    -172.402    -340.648
  O      310.609    -171.407    -342.740
  H      311.475    -170.949    -342.698
  H      310.624    -175.946    -342.542
  H      309.620    -175.191    -341.328
  H      311.356    -175.219    -341.132

 6  7  8  9  10  11  12  13  14  15  25  28  32  33  34  35 0
 6-311+G(2d,p)
 ****
 36  39  40 0
 6-311+G(2d,p)
 ****
 1  2  3  4  5  16  17  18  19  20  21  22  23  24 0
 3-21G
 ****
 26  27  29  30  31  37  38  41  42  43  44  45  46  47 0
 3-21G
 ****
 48 0
 3-21G
 ****


