%nproc=1
%NoSave
%Mem=1900MB
#P OB98/GEN NMR

erre ene a

0 1
  C     -373.821     647.179     210.836
  O     -374.898     647.809     211.488
  H     -373.398     646.417     211.499
  H     -373.040     647.919     210.607
  H     -374.137     646.688     209.912
  P     -375.964     648.617     210.610
  C     -375.807     650.729     209.126
  O     -375.371     650.082     210.320
  C     -375.249     652.152     209.019
  O     -373.835     652.101     208.734
  C     -375.901     652.941     207.889
  O     -377.109     653.618     208.257
  C     -374.813     653.949     207.536
  O     -374.899     655.137     208.342
  C     -373.513     653.191     207.850
  N     -370.833     654.283     203.628
  C     -371.479     655.147     204.498
  N     -371.425     656.456     204.176
  N     -372.126     654.744     205.565
  C     -372.171     653.395     205.700
  C     -371.584     652.451     204.897
  C     -370.817     652.898     203.759
  O     -370.211     652.175     202.968
  N     -371.888     651.168     205.329
  C     -372.718     651.367     206.336
  N     -372.853     652.692     206.649
  O     -377.151     648.925     211.646
  O     -376.497     647.884     209.416
  H     -374.260     655.791     207.983
  H     -377.999     648.943     211.177
  H     -370.335     654.642     202.846
  H     -373.203     650.571     206.904
  H     -372.790     653.819     208.378
  H     -374.892     654.273     206.492
  H     -371.021     656.807     203.319
  H     -376.084     652.312     207.013
  H     -372.040     657.101     204.671
  H     -375.357     652.659     209.993
  H     -376.900     650.747     209.167
  H     -375.528     650.141     208.256
  P     -378.369     653.642     207.281
  C     -378.883     654.725     204.940
  O     -378.053     654.645     206.083
  O     -379.478     654.427     208.138
  O     -378.848     652.306     206.823
  H     -380.089     653.795     208.552
  H     -378.491     655.456     204.265
  H     -379.872     655.007     205.236
  H     -378.914     653.772     204.455

 6  7  8  9  10  11  12  13  14  15  26  29  33  34 0
 6-311+G(2d,p)
 ****
 36  38  39  40  41 0
 6-311+G(2d,p)
 ****
 1  2  3  4  5  16  17  18  19  20  21  22  23  24  25 0
 3-21G
 ****
 27  28  30  31  32  35  37  42  43  44  45  46  47 0
 3-21G
 ****
 48  49 0
 3-21G
 ****


