%nproc=1
%NoSave
%Mem=1900MB
#P OB98/GEN NMR

erre ene a

0 1
  C      284.498     -53.225      21.208
  O      284.065     -52.116      20.448
  H      284.471     -54.114      20.573
  H      283.838     -53.389      22.064
  H      285.525     -53.074      21.550
  P      283.901     -50.701      21.190
  C      286.146     -50.149      20.019
  O      285.392     -50.097      21.221
  C      286.797     -48.794      19.748
  O      287.797     -48.898      18.712
  C      285.842     -47.710      19.257
  O      285.003     -47.192      20.277
  C      286.844     -46.685      18.751
  O      287.429     -45.992      19.867
  C      287.887     -47.599      18.060
  N      287.663     -47.733      16.621
  C      287.818     -46.573      15.853
  O      288.128     -45.506      16.383
  N      287.583     -46.639      14.500
  C      287.205     -47.757      13.966
  N      286.938     -47.757      12.630
  C      287.047     -49.006      14.734
  C      287.282     -48.924      16.042
  O      283.194     -50.723      22.506
  O      283.196     -49.761      20.104
  H      288.111     -45.396      19.509
  H      283.062     -48.875      20.520
  H      286.723     -49.912      14.241
  H      287.172     -49.796      16.677
  H      288.902     -47.225      18.227
  H      286.398     -45.932      18.097
  H      285.249     -48.067      18.408
  H      287.317     -48.487      20.665
  H      287.017     -46.873      12.144
  H      285.470     -50.430      19.205
  H      286.385     -48.491      12.202
  H      286.936     -50.900      20.101
  P      284.114     -45.900      19.934
  C      281.869     -47.057      19.294
  O      283.024     -46.366      18.850
  O      285.121     -44.989      19.090
  O      283.536     -45.181      21.111
  H      285.576     -44.343      19.665
  H      281.250     -47.294      18.454
  H      281.324     -46.439      19.976
  H      282.161     -47.960      19.787

 6  7  8  9  10  11  12  13  14  15  16  26  30  31  32  33  35 0
 6-311+G(2d,p)
 ****
 37  38 0
 6-311+G(2d,p)
 ****
 1  2  3  4  5  17  18  19  20  21  22  23  24  25 0
 3-21G
 ****
 27  28  29  34  36  39  40  41  42  43  44  45  46 0
 3-21G
 ****


