%nproc=1
%NoSave
%Mem=1900MB
#P OB98/GEN NMR

erre ene a

0 1
  C      366.338    -332.003    -622.224
  O      366.279    -330.592    -622.121
  H      366.491    -332.274    -623.271
  H      365.399    -332.436    -621.885
  H      367.169    -332.404    -621.638
  P      366.360    -329.915    -620.673
  C      368.807    -329.110    -620.897
  O      367.439    -328.730    -620.789
  C      369.624    -328.019    -621.585
  O      369.443    -328.133    -623.030
  C      369.224    -326.586    -621.190
  O      370.390    -325.775    -621.263
  C      368.248    -326.223    -622.292
  O      368.043    -324.828    -622.366
  C      368.929    -326.870    -623.507
  N      368.024    -327.025    -624.647
  C      368.047    -326.035    -625.613
  O      368.768    -325.020    -625.523
  N      367.186    -326.185    -626.662
  C      366.276    -327.194    -626.813
  O      365.513    -327.264    -627.755
  C      366.266    -328.213    -625.732
  C      367.138    -328.084    -624.712
  O      366.578    -330.848    -619.527
  O      364.975    -329.112    -620.534
  H      367.663    -324.493    -621.521
  H      364.710    -329.069    -619.599
  H      367.197    -325.467    -627.367
  H      365.552    -329.021    -625.813
  H      367.133    -328.809    -623.906
  H      369.780    -326.264    -623.837
  H      367.263    -326.678    -622.111
  H      368.778    -326.526    -620.188
  H      370.684    -328.196    -621.382
  H      368.839    -330.037    -621.482
  H      369.215    -329.308    -619.895
  P      370.449    -324.279    -620.666
  C      372.057    -324.928    -618.744
  O      371.842    -324.093    -619.885
  O      369.241    -323.905    -619.848
  O      370.602    -323.325    -621.940
  H      370.205    -322.451    -621.738
  H      373.013    -324.709    -618.316
  H      372.027    -325.955    -619.043
  H      371.292    -324.745    -618.019

 6  7  8  9  10  11  12  13  14  15  16  26  31  32  33  34  35 0
 6-311+G(2d,p)
 ****
 36  37 0
 6-311+G(2d,p)
 ****
 1  2  3  4  5  17  18  19  20  21  22  23  24  25 0
 3-21G
 ****
 27  28  29  30  38  39  40  41  42  43  44  45 0
 3-21G
 ****


