%nproc=1
%NoSave
%Mem=1900MB
#P OB98/GEN NMR

erre ene a

0 1
  C      -66.822     -29.930      63.841
  O      -65.864     -30.901      63.459
  P      -66.344     -32.133      62.556
  C      -66.217     -33.620      64.685
  O      -66.959     -33.245      63.535
  C      -66.990     -34.656      65.504
  O      -68.382     -34.235      65.624
  C      -66.989     -36.065      64.892
  O      -66.993     -37.007      65.973
  C      -68.325     -36.109      64.173
  O      -68.768     -37.429      63.899
  C      -69.194     -35.337      65.172
  N      -70.454     -34.878      64.591
  C      -71.631     -35.357      65.156
  O      -71.670     -36.139      66.106
  N      -72.791     -34.954      64.550
  C      -72.886     -34.213      63.409
  O      -73.952     -33.985      62.850
  C      -71.610     -33.734      62.855
  C      -70.471     -34.081      63.461
  O      -64.968     -32.782      62.060
  O      -67.229     -31.761      61.414
  H      -69.537     -37.362      63.305
  H      -64.767     -32.501      61.149
  H      -73.654     -35.283      64.954
  H      -71.650     -33.125      61.961
  H      -69.515     -33.759      63.063
  H      -69.404     -35.962      66.049
  H      -68.242     -35.576      63.219
  H      -66.142     -36.252      64.225
  H      -66.571     -34.682      66.518
  H      -66.039     -32.737      65.301
  H      -65.242     -34.018      64.380
  P      -66.073     -38.316      65.833
  C      -67.937     -39.519      64.452
  O      -66.591     -39.106      64.540
  O      -66.612     -39.193      67.062
  O      -64.608     -38.031      65.899
  H      -67.580     -39.177      67.136
  H      -68.610     -38.805      64.933
  H      -68.048     -40.496      64.926
  H      -68.212     -39.606      63.397
  H      -66.349     -29.178      64.437
  H      -67.598     -30.399      64.409
  H      -67.242     -29.480      62.966

 3  4  5  6  7  8  9  10  11  12  13  23  28  29  30  31  32 0
 6-311+G(2d,p)
 ****
 33  34 0
 6-311+G(2d,p)
 ****
 1  2  14  15  16  17  18  19  20  21  22  24  25  26 0
 3-21G
 ****
 27  35  36  37  38  39  40  41  42  43  44  45 0
 3-21G
 ****


