%nproc=1
%NoSave
%Mem=1900MB
#P OB98/GEN NMR

erre ene a

0 1
  C      101.529     431.525     444.566
  O      101.396     430.449     445.479
  P       99.974     429.707     445.557
  C      100.559     428.230     443.500
  O       99.654     429.158     444.083
  C       99.848     427.354     442.466
  O      100.829     426.471     441.851
  C       98.730     426.467     443.037
  O       97.718     426.377     442.027
  C       99.440     425.136     443.225
  O       98.567     424.032     443.379
  C      100.323     425.124     441.981
  N      101.844     420.388     440.797
  C      100.716     421.071     440.502
  N      100.385     422.330     440.845
  C      101.367     422.903     441.560
  C      102.566     422.328     441.952
  C      102.794     421.007     441.539
  N      103.946     420.308     441.851
  N      103.314     423.213     442.704
  C      102.579     424.307     442.761
  N      101.405     424.171     442.071
  O       98.945     430.919     445.729
  O       99.845     428.698     446.657
  H       99.083     423.217     443.524
  H       98.225     430.683     446.345
  H       99.980     420.529     439.909
  H      102.841     425.206     443.302
  H       99.750     424.894     441.074
  H      100.055     425.190     444.132
  H       98.285     426.866     443.954
  H       99.451     428.002     441.675
  H      100.964     427.578     444.282
  H      103.926     419.314     441.682
  H      104.542     420.700     442.572
  H      101.394     428.773     443.047
  P       96.182     426.579     442.445
  C       96.684     429.085     442.705
  O       96.199     427.916     443.336
  O       96.021     425.445     443.572
  O       95.188     426.500     441.341
  H       96.732     425.499     444.238
  H       96.549     429.932     443.385
  H       96.136     429.281     441.782
  H       97.752     428.974     442.492
  H      102.522     431.920     444.622
  H      100.825     432.292     444.814
  H      101.340     431.175     443.573

 3  4  5  6  7  8  9  10  11  12  22  25  29  30  31  32 0
 6-311+G(2d,p)
 ****
 33  36  37 0
 6-311+G(2d,p)
 ****
 1  2  13  14  15  16  17  18  19  20  21  23  24  26 0
 3-21G
 ****
 27  28  34  35  38  39  40  41  42  43  44  45  46  47  48 0
 3-21G
 ****


