%nproc=1
%NoSave
%Mem=1900MB
#P OB98/GEN NMR

erre ene a

0 1
  C      118.720     -41.378    -155.588
  O      119.835     -40.513    -155.669
  H      118.302     -41.321    -154.579
  H      119.029     -42.407    -155.784
  H      117.951     -41.078    -156.306
  P      120.532     -40.355    -157.103
  C      122.602     -41.788    -156.435
  O      121.477     -41.640    -157.289
  C      123.840     -42.130    -157.265
  O      123.712     -43.496    -157.746
  C      124.018     -41.227    -158.490
  O      125.413     -40.990    -158.697
  C      123.466     -42.069    -159.627
  O      123.971     -41.709    -160.905
  C      123.884     -43.473    -159.178
  N      123.091     -44.525    -159.811
  C      123.778     -45.513    -160.509
  O      125.003     -45.607    -160.567
  N      122.994     -46.427    -161.165
  C      121.632     -46.436    -161.211
  O      120.985     -47.268    -161.835
  C      120.962     -45.361    -160.461
  C      121.711     -44.469    -159.808
  O      121.578     -39.164    -156.877
  O      119.609     -40.098    -158.246
  H      121.164     -38.304    -157.080
  H      123.479     -42.220    -161.580
  H      123.476     -47.152    -161.674
  H      119.881     -45.330    -160.481
  H      121.248     -43.656    -159.259
  H      124.949     -43.638    -159.382
  H      122.373     -41.983    -159.659
  H      123.493     -40.275    -158.397
  H      124.723     -42.097    -156.616
  H      122.409     -42.597    -155.724
  H      122.760     -40.856    -155.883
  P      126.042     -39.664    -158.043
  C      124.676     -38.026    -159.555
  O      124.945     -38.510    -158.250
  O      127.195     -39.311    -159.090
  O      126.500     -39.869    -156.636
  H      126.951     -39.496    -160.013
  H      123.924     -37.266    -159.506
  H      124.330     -38.831    -160.170
  H      125.571     -37.616    -159.975

 6  7  8  9  10  11  12  13  14  15  16  27  31  32  33  34  35 0
 6-311+G(2d,p)
 ****
 36  37 0
 6-311+G(2d,p)
 ****
 1  2  3  4  5  17  18  19  20  21  22  23  24  25 0
 3-21G
 ****
 26  28  29  30  38  39  40  41  42  43  44  45 0
 3-21G
 ****


