%nproc=1
%NoSave
%Mem=1900MB
#P OB98/GEN NMR

erre ene a

0 1
  C     -349.969     499.240    -261.093
  O     -350.852     499.463    -260.006
  P     -351.923     498.344    -259.593
  C     -350.069     496.985    -258.418
  O     -351.082     496.990    -259.421
  C     -349.922     495.601    -257.788
  O     -351.041     495.314    -256.921
  C     -349.888     494.465    -258.798
  O     -348.605     494.390    -259.407
  C     -350.230     493.276    -257.912
  O     -349.079     492.790    -257.211
  C     -351.259     493.891    -256.937
  N     -352.633     493.551    -257.276
  C     -353.152     492.420    -256.633
  O     -352.455     491.766    -255.865
  N     -354.445     492.039    -256.909
  C     -355.140     492.717    -257.790
  N     -356.412     492.279    -258.025
  C     -354.611     493.882    -258.502
  C     -353.361     494.246    -258.206
  O     -353.125     498.250    -260.476
  O     -352.279     498.732    -258.074
  H     -348.616     492.198    -257.835
  H     -352.866     499.529    -258.041
  H     -355.222     494.406    -259.231
  H     -352.893     495.091    -258.697
  H     -351.060     493.535    -255.903
  H     -350.634     492.431    -258.494
  H     -350.663     494.608    -259.551
  H     -349.011     495.602    -257.179
  H     -356.730     491.453    -257.536
  H     -350.360     497.712    -257.641
  H     -357.018     492.710    -258.709
  H     -349.119     497.314    -258.856
  P     -348.437     493.645    -260.825
  C     -349.179     495.650    -262.247
  O     -349.458     494.324    -261.860
  O     -348.484     492.152    -260.764
  O     -347.011     494.147    -261.340
  H     -346.522     493.378    -261.692
  H     -349.711     495.875    -263.166
  H     -348.097     495.784    -262.416
  H     -349.504     496.346    -261.462
  H     -349.333     500.092    -261.216
  H     -350.536     499.086    -261.987
  H     -349.372     498.374    -260.896

 3  4  5  6  7  8  9  10  11  12  13  23  27  28  29  30  32 0
 6-311+G(2d,p)
 ****
 34  35 0
 6-311+G(2d,p)
 ****
 1  2  14  15  16  17  18  19  20  21  22  24  25  26 0
 3-21G
 ****
 31  33  36  37  38  39  40  41  42  43  44  45  46 0
 3-21G
 ****


