%nproc=1
%NoSave
%Mem=1900MB
#P OB98/GEN NMR

erre ene a

0 1
  C     -597.929     667.295     369.969
  O     -597.512     666.491     368.878
  H     -598.991     667.521     369.852
  H     -597.369     668.234     369.975
  H     -597.781     666.765     370.913
  P     -596.019     665.901     368.952
  C     -596.882     663.659     370.009
  O     -596.188     664.306     368.959
  C     -596.013     662.579     370.652
  O     -596.466     662.356     372.012
  C     -596.057     661.234     369.918
  O     -594.766     660.630     369.997
  C     -597.048     660.422     370.740
  O     -596.862     659.019     370.566
  C     -596.767     660.951     372.158
  N     -597.888     660.728     373.065
  C     -597.857     659.549     373.817
  O     -596.927     658.751     373.689
  N     -598.900     659.279     374.670
  C     -599.918     660.081     374.717
  N     -600.930     659.747     375.563
  C     -600.009     661.313     373.908
  C     -598.972     661.579     373.122
  O     -595.599     666.252     370.455
  O     -595.091     666.439     367.911
  H     -597.511     658.545     371.130
  H     -596.299     666.057     371.105
  H     -600.888     661.950     373.972
  H     -598.948     662.464     372.500
  H     -595.878     660.463     372.574
  H     -598.071     660.662     370.437
  H     -596.356     661.336     368.872
  H     -594.985     662.955     370.716
  H     -600.836     658.878     376.081
  H     -597.810     663.204     369.633
  H     -601.791     660.265     375.636
  H     -597.156     664.417     370.754
  P     -593.880     660.482     368.670
  C     -593.087     662.768     367.754
  O     -592.808     661.672     368.616
  O     -594.635     660.247     367.411
  O     -592.956     659.207     369.006
  H     -592.901     658.661     368.193
  H     -592.293     663.483     367.818
  H     -594.007     663.229     368.049
  H     -593.171     662.417     366.747

 6  7  8  9  10  11  12  13  14  15  16  26  30  31  32  33  35 0
 6-311+G(2d,p)
 ****
 37  38 0
 6-311+G(2d,p)
 ****
 1  2  3  4  5  17  18  19  20  21  22  23  24  25 0
 3-21G
 ****
 27  28  29  34  36  39  40  41  42  43  44  45  46 0
 3-21G
 ****


