%nproc=1
%NoSave
%Mem=1900MB
#P OB98/GEN NMR

erre ene a

0 1
  C      825.310    -110.576     614.029
  O      824.832    -111.204     615.195
  H      826.215    -111.088     613.696
  H      825.559    -109.524     614.235
  H      824.561    -110.623     613.227
  P      823.484    -110.596     615.835
  C      822.813    -108.354     616.957
  O      823.850    -109.132     616.360
  C      823.411    -107.427     618.018
  O      824.390    -106.552     617.420
  C      822.399    -106.514     618.685
  O      821.630    -107.185     619.669
  C      823.303    -105.437     619.267
  O      823.855    -105.832     620.523
  C      824.411    -105.325     618.190
  N      824.647    -100.224     617.923
  C      824.977    -101.092     618.929
  N      824.895    -102.447     618.906
  C      824.438    -102.886     617.713
  C      824.057    -102.115     616.624
  C      824.185    -100.715     616.768
  N      823.824     -99.826     615.768
  N      823.614    -102.909     615.592
  C      823.716    -104.154     616.045
  N      824.216    -104.178     617.318
  O      823.317    -111.454     617.180
  O      822.274    -110.688     614.964
  H      824.427    -106.610     620.339
  H      822.645    -112.164     617.035
  H      825.350    -100.650     619.840
  H      823.437    -105.043     615.503
  H      825.409    -105.238     618.642
  H      822.748    -104.508     619.412
  H      821.738    -106.067     617.937
  H      823.930    -108.052     618.772
  H      822.080    -109.016     617.422
  H      822.330    -107.760     616.176
  H      823.872     -98.842     615.964
  H      823.380    -100.186     614.934
  P      820.167    -106.620     620.000
  C      819.335    -104.219     620.598
  O      820.345    -105.222     620.734
  O      819.622    -107.591     621.142
  O      819.252    -106.572     618.822
  H      818.644    -107.736     621.022
  H      819.618    -103.350     621.155
  H      818.406    -104.595     620.972
  H      819.225    -103.961     619.565

 6  7  8  9  10  11  12  13  14  15  25  28  32  33  34  35 0
 6-311+G(2d,p)
 ****
 36  37  40 0
 6-311+G(2d,p)
 ****
 1  2  3  4  5  16  17  18  19  20  21  22  23  24 0
 3-21G
 ****
 26  27  29  30  31  38  39 41  42  43  44  45  46  47  48 0
 3-21G
 ****


