%nproc=1
%NoSave
%Mem=1900MB
#P OB98/GEN NMR

erre ene a

0 1
  C       77.650    -102.625    -137.913
  O       78.549    -101.531    -137.861
  P       80.118    -101.839    -137.917
  C       81.881    -102.952    -136.365
  O       80.555    -102.462    -136.503
  C       82.009    -103.847    -135.132
  O       81.393    -105.135    -135.400
  C       83.458    -104.115    -134.714
  O       83.527    -104.227    -133.284
  C       83.747    -105.487    -135.293
  O       84.806    -106.137    -134.594
  C       82.378    -106.153    -135.137
  N       83.976    -110.812    -136.279
  C       84.186    -110.069    -135.133
  N       85.002    -110.612    -134.205
  N       83.637    -108.904    -134.914
  C       82.848    -108.483    -135.933
  C       82.552    -109.136    -137.108
  C       83.173    -110.420    -137.343
  O       83.054    -111.115    -138.349
  N       81.682    -108.408    -137.882
  C       81.488    -107.296    -137.201
  N       82.198    -107.280    -136.028
  O       80.771    -100.375    -137.898
  O       80.562    -102.603    -139.118
  H       84.503    -106.260    -133.674
  H       81.098    -100.149    -138.789
  H       84.431    -111.700    -136.406
  H       80.863    -106.470    -137.518
  H       82.220    -106.508    -134.112
  H       84.032    -105.399    -136.348
  H       85.510    -111.474    -134.341
  H       84.177    -103.357    -135.050
  H       85.209    -110.070    -133.375
  H       81.447    -103.390    -134.308
  H       82.564    -102.107    -136.268
  H       82.159    -103.510    -137.267
  P       84.871    -103.680    -132.598
  C       87.382    -104.346    -132.814
  O       86.029    -104.701    -133.031
  O       84.649    -103.996    -131.044
  O       85.146    -102.235    -132.854
  H       85.170    -103.381    -130.496
  H       87.821    -105.056    -132.107
  H       87.486    -103.336    -132.410
  H       87.919    -104.406    -133.760
  H       76.644    -102.263    -137.866
  H       77.833    -103.277    -137.085
  H       77.794    -103.162    -138.828

 3  4  5  6  7  8  9  10  11  12  23  26  30  31 0
 6-311+G(2d,p)
 ****
 33  35  36  37  38 0
 6-311+G(2d,p)
 ****
 1  2  13  14  15  16  17  18  19  20  21  22  24  25 0
 3-21G
 ****
 27  28  29  32  34  39  40  41  42  43  44  45  46  47  48  49 0
 3-21G
 ****


