%nproc=1
%NoSave
%Mem=1900MB
#P OB98/GEN NMR

erre ene a

0 1
  C     -128.314      -6.361    -117.517
  O     -129.333      -6.610    -116.540
  P     -130.854      -6.670    -117.039
  C     -132.983      -8.012    -116.386
  O     -131.674      -7.600    -116.024
  C     -133.358      -9.300    -115.648
  O     -132.694     -10.452    -116.214
  C     -132.986      -9.290    -114.172
  O     -133.965      -8.622    -113.387
  C     -132.996     -10.777    -113.856
  O     -134.352     -11.224    -113.653
  C     -132.418     -11.385    -115.139
  N     -128.770     -14.836    -115.741
  C     -130.135     -14.941    -115.927
  N     -130.594     -16.142    -116.343
  N     -130.973     -13.959    -115.725
  C     -130.371     -12.814    -115.329
  C     -129.032     -12.586    -115.108
  C     -128.116     -13.685    -115.320
  O     -126.901     -13.654    -115.158
  N     -128.804     -11.297    -114.705
  C     -129.999     -10.738    -114.701
  N     -130.987     -11.623    -115.056
  O     -130.762      -7.580    -118.354
  O     -131.457      -5.336    -117.332
  H     -134.320     -12.198    -113.604
  H     -131.481      -7.346    -118.970
  H     -128.171     -15.626    -115.906
  H     -130.199      -9.705    -114.452
  H     -132.890     -12.339    -115.400
  H     -132.446     -11.013    -112.941
  H     -130.000     -16.925    -116.566
  H     -131.981      -8.878    -114.018
  H     -131.587     -16.228    -116.518
  H     -134.442      -9.445    -115.744
  H     -133.048      -8.171    -117.466
  H     -133.685      -7.204    -116.163
  P     -133.556      -7.229    -112.706
  C     -134.868      -5.326    -111.525
  O     -134.918      -6.584    -112.166
  O     -133.166      -6.320    -113.964
  O     -132.440      -7.321    -111.723
  H     -132.473      -5.682    -113.712
  H     -135.890      -4.972    -111.373
  H     -134.332      -4.599    -112.138
  H     -134.380      -5.421    -110.550
  H     -127.357      -6.349    -117.039
  H     -128.491      -5.415    -117.984
  H     -128.334      -7.133    -118.257

 3  4  5  6  7  8  9  10  11  12  23  26  30  31 0
 6-311+G(2d,p)
 ****
 33  35  36  37  38 0
 6-311+G(2d,p)
 ****
 1  2  13  14  15  16  17  18  19  20  21  22  24  25 0
 3-21G
 ****
 27  28  29  32  34  39  40  41  42  43  44  45  46  47  48  49 0
 3-21G
 ****


