%nproc=1
%NoSave
%Mem=1900MB
#P OB98/GEN NMR

erre ene a

0 1
  C        4.570     884.367     152.132
  O        5.754     884.544     152.883
  H        3.776     884.028     152.801
  H        4.726     883.613     151.354
  H        4.264     885.314     151.677
  P        7.043     885.068     152.082
  C        8.660     884.018     150.334
  O        7.635     883.798     151.300
  C        9.910     883.235     150.722
  O        9.696     881.821     150.486
  C       11.142     883.602     149.914
  O       11.740     884.804     150.358
  C       12.018     882.372     150.134
  O       12.733     882.456     151.374
  C       10.986     881.235     150.190
  N       13.410     877.838     147.248
  C       13.684     878.315     148.487
  N       12.974     879.215     149.209
  C       11.872     879.602     148.538
  C       11.470     879.197     147.272
  C       12.295     878.265     146.622
  N       12.039     877.793     145.349
  N       10.307     879.838     146.904
  C       10.007     880.620     147.927
  N       10.920     880.501     148.940
  O        8.112     885.329     153.246
  O        6.820     886.287     151.250
  H       13.318     883.237     151.295
  H        8.139     886.282     153.456
  H       14.580     877.937     148.953
  H        9.150     881.279     147.979
  H       11.206     880.514     150.985
  H       12.747     882.271     149.335
  H       10.889     883.665     148.845
  H       10.092     883.372     151.801
  H        8.901     885.087     150.296
  H        8.295     883.699     149.357
  H       12.712     877.184     144.919
  H       11.270     878.193     144.831
  P       12.845     885.483     149.413
  C       15.056     884.713     148.265
  O       13.961     884.376     149.110
  O       13.582     886.523     150.370
  O       12.291     886.144     148.192
  H       13.834     887.325     149.866
  H       15.704     883.867     148.167
  H       15.598     885.530     148.693
  H       14.689     884.995     147.300

 6  7  8  9  10  11  12  13  14  15  25  28  32  33  34  35 0
 6-311+G(2d,p)
 ****
 36  37  40 0
 6-311+G(2d,p)
 ****
 1  2  3  4  5  16  17  18  19  20  21  22  23  24 0
 3-21G
 ****
 26  27  29  30  31  38  39 41  42  43  44  45  46  47  48 0
 3-21G
 ****


