%nproc=1
%NoSave
%Mem=1900MB
#P OB98/GEN NMR

erre ene a

0 1
  C     -575.162     520.764      74.828
  O     -575.593     520.219      73.594
  H     -575.429     520.066      75.631
  H     -575.649     521.723      75.023
  H     -574.075     520.891      74.822
  P     -575.554     521.166      72.298
  C     -578.070     521.073      71.712
  O     -576.998     521.864      72.230
  C     -579.130     521.954      71.037
  O     -579.611     522.948      71.971
  C     -578.605     522.742      69.845
  O     -578.288     521.953      68.724
  C     -579.632     523.858      69.716
  O     -580.771     523.495      68.938
  C     -580.059     524.075      71.193
  N     -579.552     525.337      71.727
  C     -580.112     526.490      71.190
  O     -580.969     526.482      70.303
  N     -579.627     527.673      71.680
  C     -578.619     527.805      72.593
  O     -578.200     528.903      72.960
  C     -578.047     526.553      73.105
  C     -578.530     525.392      72.648
  O     -575.143     520.500      71.016
  O     -574.593     522.370      72.737
  H     -581.405     524.239      68.994
  H     -574.275     522.875      71.947
  H     -580.027     528.521      71.310
  H     -577.240     526.623      73.830
  H     -578.122     524.449      73.020
  H     -581.154     524.095      71.274
  H     -579.200     524.749      69.256
  H     -577.669     523.230      70.149
  H     -579.976     521.320      70.748
  H     -578.529     520.541      72.552
  H     -577.673     520.343      70.996
  P     -577.631     522.542      67.392
  C     -579.723     522.701      65.848
  O     -578.747     523.405      66.615
  O     -576.762     521.615      66.595
  O     -576.676     523.700      67.996
  H     -575.884     523.745      67.425
  H     -580.392     523.401      65.393
  H     -580.275     522.045      66.488
  H     -579.234     522.129      65.087

 6  7  8  9  10  11  12  13  14  15  16  26  31  32  33  34  35 0
 6-311+G(2d,p)
 ****
 36  37 0
 6-311+G(2d,p)
 ****
 1  2  3  4  5  17  18  19  20  21  22  23  24  25 0
 3-21G
 ****
 27  28  29  30  38  39  40  41  42  43  44  45 0
 3-21G
 ****


