%nproc=1
%NoSave
%Mem=1900MB
#P OB98/GEN NMR

erre ene a

0 1
  C       67.150     -10.071      99.020
  O       66.763     -10.303      97.681
  H       66.412     -10.494      99.708
  H       68.115     -10.554      99.196
  H       67.254      -8.997      99.200
  P       65.315      -9.761      97.255
  C       62.867     -10.465      97.732
  O       64.243     -10.755      97.920
  C       62.114     -11.726      97.327
  O       62.320     -12.766      98.304
  C       60.602     -11.562      97.225
  O       60.216     -10.934      96.011
  C       60.158     -13.017      97.270
  O       60.312     -13.610      95.968
  C       61.161     -13.640      98.253
  N       57.813     -16.168     101.213
  C       58.086     -16.246      99.891
  N       58.978     -15.537      99.171
  C       59.648     -14.676      99.955
  C       59.480     -14.485     101.317
  C       58.507     -15.273     101.953
  N       58.225     -15.173     103.299
  N       60.352     -13.527     101.785
  C       61.036     -13.144     100.727
  N       60.642     -13.806      99.595
  O       65.227     -10.117      95.694
  O       65.079      -8.308      97.498
  H       59.686     -13.153      95.376
  H       64.734      -9.410      95.236
  H       57.509     -16.982      99.336
  H       61.824     -12.400     100.735
  H       61.515     -14.616      97.901
  H       59.114     -13.138      97.564
  H       60.201     -11.034      98.097
  H       62.531     -12.076      96.373
  H       62.757      -9.713      96.944
  H       57.669     -15.891     103.730
  H       58.757     -14.505     103.847
  H       62.460     -10.062      98.666
  P       58.698     -10.419      95.895
  C       56.414     -11.630      96.111
  O       57.799     -11.745      95.807
  O       58.630      -9.829      94.408
  O       58.292      -9.410      96.913
  H       57.926      -9.153      94.352
  H       55.946     -12.587      96.011
  H       55.957     -10.937      95.436
  H       56.297     -11.279      97.115

 6  7  8  9  10  11  12  13  14  15  25  28  32  33  34  35 0
 6-311+G(2d,p)
 ****
 36  39  40 0
 6-311+G(2d,p)
 ****
 1  2  3  4  5  16  17  18  19  20  21  22  23  24 0
 3-21G
 ****
 26  27  29  30  31  37  38  41  42  43  44  45  46  47  48 0
 3-21G
 ****


