%nproc=1
%NoSave
%Mem=1900MB
#P OB98/GEN NMR

erre ene a

0 1
  C      384.449    -483.280    -537.330
  O      384.793    -482.163    -538.123
  H      383.366    -483.290    -537.195
  H      384.921    -483.212    -536.348
  H      384.747    -484.208    -537.827
  P      386.342    -481.916    -538.468
  C      385.878    -483.653    -540.337
  O      386.764    -483.216    -539.319
  C      386.664    -484.181    -541.531
  O      387.214    -483.105    -542.326
  C      387.872    -485.043    -541.171
  O      387.534    -486.341    -540.704
  C      388.582    -485.078    -542.514
  O      387.894    -485.984    -543.398
  C      388.414    -483.612    -542.974
  N      389.570    -482.782    -542.637
  C      390.487    -482.539    -543.663
  O      390.321    -483.018    -544.785
  N      391.607    -481.783    -543.389
  C      391.797    -481.331    -542.191
  N      392.926    -480.595    -541.974
  C      390.862    -481.574    -541.074
  C      389.782    -482.298    -541.360
  O      387.228    -481.589    -537.307
  O      386.327    -480.782    -539.598
  H      388.146    -486.888    -543.129
  H      387.265    -480.584    -539.840
  H      391.089    -481.200    -540.085
  H      389.054    -482.527    -540.592
  H      388.242    -483.558    -544.057
  H      389.615    -485.414    -542.452
  H      388.521    -484.526    -540.450
  H      385.961    -484.726    -542.173
  H      393.546    -480.444    -542.760
  H      385.250    -482.801    -540.628
  H      393.192    -480.268    -541.055
  H      385.240    -484.451    -539.961
  P      388.731    -487.238    -540.119
  C      389.045    -486.195    -537.743
  O      389.520    -486.312    -539.077
  O      389.731    -487.362    -541.364
  O      388.320    -488.564    -539.573
  H      389.602    -488.221    -541.820
  H      389.689    -485.542    -537.191
  H      389.036    -487.160    -537.282
  H      388.053    -485.794    -537.752

 6  7  8  9  10  11  12  13  14  15  16  26  30  31  32  33  35 0
 6-311+G(2d,p)
 ****
 37  38 0
 6-311+G(2d,p)
 ****
 1  2  3  4  5  17  18  19  20  21  22  23  24  25 0
 3-21G
 ****
 27  28  29  34  36  39  40  41  42  43  44  45  46 0
 3-21G
 ****


