%nproc=1
%NoSave
%Mem=1900MB
#P OB98/GEN NMR

erre ene a

0 1
  C     -191.381     127.484       6.671
  O     -191.508     126.077       6.670
  H     -190.318     127.738       6.657
  H     -191.830     127.909       7.571
  H     -191.852     127.910       5.781
  P     -192.973     125.437       6.755
  C     -193.248     126.012       9.257
  O     -193.190     124.979       8.278
  C     -193.220     125.407      10.665
  O     -194.448     124.660      10.847
  C     -192.038     124.449      10.870
  O     -191.257     124.763      12.022
  C     -192.688     123.072      10.811
  O     -191.995     122.062      11.514
  C     -194.112     123.340      11.313
  N     -195.095     122.363      10.851
  C     -195.277     121.224      11.629
  O     -194.693     120.987      12.685
  N     -196.194     120.323      11.153
  C     -196.919     120.444      10.006
  O     -197.732     119.606       9.634
  C     -196.667     121.657       9.216
  C     -195.779     122.547       9.667
  O     -193.282     124.390       5.739
  O     -193.955     126.695       6.617
  H     -192.645     121.373      11.763
  H     -194.319     126.727       5.713
  H     -196.342     119.499      11.714
  H     -197.218     121.781       8.294
  H     -195.570     123.456       9.110
  H     -194.138     123.347      12.403
  H     -192.732     122.759       9.761
  H     -191.318     124.536      10.048
  H     -193.216     126.221      11.398
  H     -194.176     126.571       9.102
  H     -192.397     126.689       9.127
  P     -190.051     125.806      12.044
  C     -188.524     124.154      10.699
  O     -188.688     124.997      11.828
  O     -190.078     126.800      13.155
  O     -190.235     126.616      10.661
  H     -189.924     127.529      10.829
  H     -187.554     123.703      10.729
  H     -188.620     124.733       9.804
  H     -189.274     123.390      10.712

 6  7  8  9  10  11  12  13  14  15  16  26  31  32  33  34  35 0
 6-311+G(2d,p)
 ****
 36  37 0
 6-311+G(2d,p)
 ****
 1  2  3  4  5  17  18  19  20  21  22  23  24  25 0
 3-21G
 ****
 27  28  29  30  38  39  40  41  42  43  44  45 0
 3-21G
 ****


