%nproc=1
%NoSave
%Mem=1900MB
#P OB98/GEN NMR

erre ene a

0 1
  C      315.817    -329.798      50.702
  O      315.726    -331.197      50.530
  P      314.348    -332.002      50.600
  C      312.546    -332.200      52.457
  O      313.927    -332.158      52.145
  C      312.259    -332.107      53.966
  O      312.640    -330.801      54.438
  C      310.758    -332.243      54.232
  O      310.169    -333.525      54.321
  C      310.478    -331.329      55.417
  O      310.433    -332.032      56.660
  C      311.666    -330.354      55.399
  N      309.908    -325.956      57.215
  C      310.418    -327.045      57.903
  N      310.267    -327.009      59.249
  N      311.004    -328.059      57.323
  C      310.997    -327.988      55.966
  C      310.533    -326.956      55.179
  C      309.924    -325.822      55.835
  O      309.378    -324.885      55.257
  N      310.621    -327.264      53.844
  C      311.106    -328.488      53.823
  N      311.309    -328.985      55.094
  O      314.219    -333.189      49.700
  O      313.304    -330.885      50.073
  H      309.713    -332.695      56.604
  H      312.603    -331.348      49.574
  H      309.395    -325.237      57.709
  H      311.292    -329.077      52.927
  H      312.172    -330.345      56.377
  H      309.510    -330.833      55.305
  H      309.697    -326.327      59.707
  H      310.240    -331.774      53.383
  H      310.477    -327.861      59.759
  H      312.873    -332.816      54.530
  H      312.144    -333.142      52.054
  H      312.020    -331.392      51.943
  P      308.596    -333.842      54.423
  C      306.656    -333.213      55.964
  O      308.062    -333.308      55.832
  O      308.529    -335.434      54.594
  O      307.791    -333.411      53.235
  H      307.647    -335.762      54.317
  H      306.417    -332.570      56.816
  H      306.234    -334.207      56.141
  H      306.206    -332.781      55.058
  H      316.839    -329.493      50.612
  H      315.450    -329.533      51.672
  H      315.231    -329.308      49.953

 3  4  5  6  7  8  9  10  11  12  23  26  30  31 0
 6-311+G(2d,p)
 ****
 33  35  36  37  38 0
 6-311+G(2d,p)
 ****
 1  2  13  14  15  16  17  18  19  20  21  22  24  25 0
 3-21G
 ****
 27  28  29  32  34  39  40  41  42  43  44  45  46  47  48  49 0
 3-21G
 ****


