%nproc=1
%NoSave
%Mem=1900MB
#P OB98/GEN NMR

erre ene a

0 1
  C     -514.913    -537.834      46.658
  O     -513.560    -538.210      46.502
  H     -515.391    -537.823      45.674
  H     -514.977    -536.833      47.090
  H     -515.438    -538.550      47.301
  P     -512.719    -538.459      47.849
  C     -511.122    -536.422      47.376
  O     -511.258    -537.817      47.616
  C     -509.639    -536.055      47.277
  O     -508.965    -536.253      48.524
  C     -508.851    -536.910      46.295
  O     -509.165    -536.620      44.949
  C     -507.433    -536.534      46.685
  O     -507.046    -535.274      46.132
  C     -507.554    -536.442      48.239
  N     -506.998    -537.611      48.913
  C     -505.672    -537.479      49.336
  O     -505.051    -536.440      49.148
  N     -505.076    -538.569      49.947
  C     -505.756    -539.654      50.140
  N     -505.101    -540.684      50.746
  C     -507.167    -539.818      49.728
  C     -507.708    -538.763      49.115
  O     -512.425    -540.022      47.793
  O     -513.374    -537.990      49.099
  H     -507.346    -535.276      45.202
  H     -512.019    -540.323      46.967
  H     -507.697    -540.743      49.913
  H     -508.737    -538.807      48.779
  H     -507.032    -535.546      48.603
  H     -506.706    -537.275      46.336
  H     -509.002    -537.971      46.519
  H     -509.572    -534.984      47.025
  H     -504.130    -540.541      50.996
  H     -511.615    -535.836      48.158
  H     -505.511    -541.596      50.907
  H     -511.626    -536.203      46.425
  P     -509.247    -537.801      43.860
  C     -507.481    -536.992      42.157
  O     -508.875    -537.136      42.445
  O     -510.516    -538.591      43.867
  O     -507.944    -538.681      44.168
  H     -507.086    -538.199      44.092
  H     -507.360    -536.541      41.194
  H     -507.015    -537.955      42.160
  H     -507.025    -536.373      42.901

 6  7  8  9  10  11  12  13  14  15  16  26  30  31  32  33  35 0
 6-311+G(2d,p)
 ****
 37  38 0
 6-311+G(2d,p)
 ****
 1  2  3  4  5  17  18  19  20  21  22  23  24  25 0
 3-21G
 ****
 27  28  29  34  36  39  40  41  42  43  44  45  46 0
 3-21G
 ****


