%nproc=1
%NoSave
%Mem=1900MB
#P OB98/GEN NMR

erre ene a

0 1
  C     -127.054       0.824    1085.844
  O     -127.264       1.670    1084.742
  P     -126.399       1.383    1083.412
  C     -128.457       0.544    1082.048
  O     -127.172       0.245    1082.585
  C     -128.450       0.346    1080.537
  O     -128.184      -1.030    1080.194
  C     -129.758       0.701    1079.839
  O     -129.919       2.109    1079.751
  C     -129.560      -0.007    1078.514
  O     -128.712       0.778    1077.654
  C     -128.852      -1.291    1078.933
  N     -131.683      -4.779    1076.479
  C     -130.922      -3.784    1076.022
  N     -130.222      -2.874    1076.735
  C     -130.335      -3.098    1078.057
  C     -131.112      -4.085    1078.671
  C     -131.803      -4.948    1077.819
  N     -132.591      -6.001    1078.278
  N     -131.010      -3.991    1080.034
  C     -130.204      -2.995    1080.254
  N     -129.758      -2.413    1079.095
  O     -125.113       0.614    1083.983
  O     -126.025       2.599    1082.626
  H     -127.833       0.805    1078.063
  H     -124.310       0.836    1083.466
  H     -130.859      -3.672    1074.931
  H     -129.900      -2.620    1081.221
  H     -128.069      -1.597    1078.228
  H     -130.510      -0.178    1077.971
  H     -130.616       0.271    1080.386
  H     -127.619       0.974    1080.131
  H     -128.715       1.574    1082.277
  H     -133.159      -6.478    1077.612
  H     -132.784      -6.039    1079.276
  H     -129.209      -0.116    1082.525
  P     -131.351       2.719    1080.218
  C     -130.567       4.248    1082.118
  O     -131.157       3.011    1081.773
  O     -132.274       1.407    1080.213
  O     -131.844       3.861    1079.385
  H     -131.836       0.659    1080.682
  H     -130.552       4.350    1083.202
  H     -131.148       5.073    1081.690
  H     -129.537       4.302    1081.733
  H     -127.688       1.126    1086.651
  H     -126.031       0.886    1086.152
  H     -127.283      -0.184    1085.568

 3  4  5  6  7  8  9  10  11  12  22  25  29  30  31  32 0
 6-311+G(2d,p)
 ****
 33  36  37 0
 6-311+G(2d,p)
 ****
 1  2  13  14  15  16  17  18  19  20  21  23  24  26 0
 3-21G
 ****
 27  28  34  35  38  39  40  41  42  43  44  45  46  47  48 0
 3-21G
 ****


