%nproc=1
%NoSave
%Mem=1900MB
#P OB98/GEN NMR

erre ene a

0 1
  C      223.280      68.255    -169.065
  O      222.684      68.132    -170.340
  H      223.191      67.316    -168.513
  H      224.341      68.487    -169.193
  H      222.807      69.065    -168.502
  P      221.115      67.799    -170.377
  C      220.596      70.001    -171.657
  O      220.534      68.581    -171.654
  C      221.138      70.486    -172.996
  O      222.554      70.212    -173.090
  C      220.507      69.814    -174.210
  O      219.257      70.386    -174.550
  C      221.555      70.110    -175.268
  O      221.432      71.475    -175.705
  C      222.857      69.918    -174.481
  N      226.374      66.968    -176.741
  C      226.071      68.275    -176.879
  N      225.117      68.984    -176.243
  C      224.436      68.207    -175.387
  C      224.626      66.857    -175.146
  C      225.656      66.228    -175.864
  N      225.960      64.890    -175.738
  N      223.709      66.392    -174.223
  C      223.003      67.453    -173.891
  N      223.396      68.572    -174.574
  O      220.525      68.631    -169.143
  O      220.757      66.353    -170.315
  H      220.552      71.558    -176.122
  H      219.663      68.262    -168.872
  H      226.675      68.825    -177.596
  H      222.200      67.463    -173.164
  H      223.647      70.608    -174.799
  H      221.459      69.479    -176.154
  H      220.430      68.727    -174.075
  H      221.006      71.575    -173.041
  H      221.261      70.333    -170.855
  H      226.585      64.502    -176.427
  H      225.334      64.306    -175.202
  H      219.594      70.404    -171.481
  P      218.243      69.484    -175.408
  C      217.670      68.187    -173.227
  O      217.181      68.902    -174.359
  O      219.127      68.210    -175.794
  O      217.667      70.162    -176.607
  H      218.802      67.799    -176.617
  H      216.846      67.865    -172.625
  H      218.305      68.825    -172.649
  H      218.226      67.334    -173.557

 6  7  8  9  10  11  12  13  14  15  25  28  32  33  34  35 0
 6-311+G(2d,p)
 ****
 36  39  40 0
 6-311+G(2d,p)
 ****
 1  2  3  4  5  16  17  18  19  20  21  22  23  24 0
 3-21G
 ****
 26  27  29  30  31  37  38  41  42  43  44  45  46  47 0
 3-21G
 ****
 48 0
 3-21G
 ****


