%nproc=1
%NoSave
%Mem=1900MB
#P OB98/GEN NMR

erre ene a

0 1
  C       13.377      34.708     113.705
  O       12.720      33.542     114.169
  P       13.644      32.303     114.611
  C       15.468      30.845     113.457
  O       14.599      31.969     113.369
  C       15.529      30.122     112.114
  O       14.288      29.433     111.863
  C       15.737      31.035     110.912
  O       17.084      31.470     110.826
  C       15.291      30.113     109.781
  O       16.337      29.183     109.462
  C       14.103      29.373     110.423
  N       10.054      29.101     107.299
  C       11.198      28.382     107.358
  N       12.238      28.529     108.205
  C       12.014      29.538     109.062
  C       10.909      30.370     109.107
  C        9.892      30.121     108.175
  N        8.728      30.859     108.114
  N       11.043      31.309     110.110
  C       12.204      31.039     110.667
  N       12.823      29.969     110.080
  O       12.621      31.076     114.633
  O       14.341      32.477     115.925
  H       16.001      28.597     108.754
  H       12.853      30.440     115.337
  H       11.288      27.579     106.630
  H       12.637      31.583     111.497
  H       14.063      28.316     110.138
  H       15.037      30.651     108.862
  H       15.070      31.904     110.971
  H       16.333      29.375     112.168
  H       15.090      30.151     114.215
  H        8.121      30.710     107.322
  H        8.672      31.702     108.671
  H       16.460      31.187     113.765
  P       17.347      32.927     110.205
  C       16.798      33.902     107.892
  O       17.080      32.727     108.634
  O       18.941      33.027     110.280
  O       16.593      34.033     110.858
  H       19.374      32.231     109.923
  H       16.691      33.634     106.840
  H       17.617      34.620     107.995
  H       15.863      34.349     108.241
  H       12.649      35.448     113.446
  H       13.963      34.468     112.843
  H       14.015      35.089     114.475

 3  4  5  6  7  8  9  10  11  12  22  25  29  30  31  32 0
 6-311+G(2d,p)
 ****
 33  36  37 0
 6-311+G(2d,p)
 ****
 1  2  13  14  15  16  17  18  19  20  21  23  24  26 0
 3-21G
 ****
 27  28  34  35  38  39  40  41  42  43  44  45  46  47  48 0
 3-21G
 ****


