%nproc=1
%NoSave
%Mem=1900MB
#P OB98/GEN NMR

erre ene a

0 1
  C     -875.936     115.801       4.401
  O     -875.828     116.315       5.712
  H     -876.989     115.643       4.168
  H     -875.414     114.842       4.337
  H     -875.518     116.506       3.673
  P     -874.396     116.837       6.187
  C     -873.621     114.381       5.819
  O     -873.553     115.547       6.631
  C     -872.683     113.302       6.363
  O     -871.318     113.794       6.258
  C     -872.930     112.946       7.838
  O     -872.693     111.547       8.007
  C     -871.852     113.729       8.565
  O     -871.514     113.198       9.844
  C     -870.698     113.643       7.554
  N     -869.679     114.665       7.772
  C     -868.639     114.359       8.639
  O     -868.463     113.254       9.160
  N     -867.760     115.383       8.896
  C     -867.841     116.652       8.412
  O     -867.042     117.528       8.697
  C     -868.976     116.926       7.504
  C     -869.829     115.932       7.240
  O     -874.718     117.570       7.575
  O     -873.688     117.733       5.214
  H     -874.933     118.512       7.424
  H     -870.907     113.826      10.279
  H     -867.001     115.170       9.527
  H     -869.071     117.926       7.112
  H     -870.683     116.112       6.596
  H     -870.239     112.651       7.588
  H     -872.168     114.772       8.703
  H     -873.937     113.201       8.195
  H     -872.761     112.415       5.723
  H     -873.320     114.638       4.796
  H     -874.656     114.014       5.804
  P     -873.970     110.578       8.049
  C     -873.676     110.377      10.651
  O     -873.821     109.719       9.388
  O     -873.614     109.551       6.874
  O     -875.261     111.308       7.889
  H     -872.674     109.363       6.809
  H     -873.590     109.645      11.427
  H     -874.533     110.992      10.833
  H     -872.797     110.986      10.637

 6  7  8  9  10  11  12  13  14  15  16  27  31  32  33  34  35 0
 6-311+G(2d,p)
 ****
 36  37 0
 6-311+G(2d,p)
 ****
 1  2  3  4  5  17  18  19  20  21  22  23  24  25 0
 3-21G
 ****
 26  28  29  30  38  39  40  41  42  43  44  45 0
 3-21G
 ****


