%nproc=1
%NoSave
%Mem=1900MB
#P OB98/GEN NMR

erre ene a

0 1
  C     -259.622    -207.721     139.131
  O     -258.439    -208.362     138.689
  H     -259.356    -206.982     139.893
  H     -260.309    -208.451     139.572
  H     -260.108    -207.210     138.294
  P     -258.611    -209.529     137.604
  C     -259.906    -211.784     137.529
  O     -259.408    -210.718     138.331
  C     -260.650    -212.778     138.414
  O     -261.669    -212.089     139.179
  C     -261.396    -213.861     137.637
  O     -260.526    -214.888     137.184
  C     -262.381    -214.344     138.686
  O     -261.787    -215.312     139.566
  C     -262.721    -213.042     139.449
  N     -264.036    -212.523     139.094
  C     -265.114    -213.071     139.787
  O     -264.984    -213.934     140.650
  N     -266.353    -212.610     139.433
  C     -266.622    -211.712     138.439
  O     -267.762    -211.398     138.113
  C     -265.440    -211.156     137.742
  C     -264.228    -211.587     138.091
  O     -257.121    -210.102     137.454
  O     -259.183    -209.094     136.293
  H     -256.718    -209.768     136.631
  H     -262.441    -215.468     140.282
  H     -267.143    -213.007     139.918
  H     -265.619    -210.437     136.949
  H     -263.350    -211.212     137.574
  H     -262.710    -213.224     140.533
  H     -263.255    -214.823     138.236
  H     -261.953    -213.420     136.806
  H     -259.939    -213.229     139.117
  H     -259.068    -212.296     137.045
  H     -260.567    -211.370     136.756
  P     -260.588    -215.314     135.639
  C     -262.190    -216.840     134.225
  O     -261.892    -216.235     135.466
  O     -259.364    -216.348     135.557
  O     -260.507    -214.158     134.697
  H     -259.255    -216.876     136.362
  H     -263.092    -217.409     134.313
  H     -261.386    -217.487     133.942
  H     -262.317    -216.082     133.480

 6  7  8  9  10  11  12  13  14  15  16  27  31  32  33  34  35 0
 6-311+G(2d,p)
 ****
 36  37 0
 6-311+G(2d,p)
 ****
 1  2  3  4  5  17  18  19  20  21  22  23  24  25 0
 3-21G
 ****
 26  28  29  30  38  39  40  41  42  43  44  45 0
 3-21G
 ****


