%nproc=1
%NoSave
%Mem=1900MB
#P OB98/GEN NMR

erre ene a

0 1
  C      170.090     871.666     347.730
  O      169.492     872.459     348.744
  P      169.969     873.973     348.999
  C      172.276     873.352     349.992
  O      170.984     873.885     350.243
  C      173.143     873.501     351.234
  O      173.199     874.886     351.634
  C      172.638     872.738     352.457
  O      172.913     871.350     352.338
  C      173.374     873.461     353.574
  O      174.726     872.998     353.666
  C      173.355     874.922     353.074
  N      172.313     875.732     353.700
  C      172.727     876.918     354.295
  O      173.912     877.265     354.284
  N      171.775     877.726     354.883
  C      170.533     877.359     354.890
  N      169.631     878.225     355.424
  C      170.060     876.082     354.319
  C      171.001     875.323     353.748
  O      168.864     874.961     349.164
  O      170.948     874.295     347.776
  H      174.694     872.052     353.903
  H      170.482     874.654     346.980
  H      169.020     875.818     354.368
  H      170.733     874.385     353.285
  H      174.327     875.397     353.257
  H      172.904     873.343     354.555
  H      171.554     872.879     352.573
  H      174.165     873.178     350.973
  H      169.969     879.155     355.639
  H      172.726     873.921     349.169
  H      168.640     878.155     355.209
  H      172.186     872.303     349.693
  P      171.667     870.358     352.197
  C      170.085     871.122     354.106
  O      171.063     870.195     353.683
  O      172.353     868.941     351.892
  O      170.681     870.746     351.155
  H      172.291     868.738     350.942
  H      169.612     870.741     355.022
  H      169.305     871.243     353.345
  H      170.549     872.086     354.324
  H      169.636     870.697     347.721
  H      171.137     871.568     347.925
  H      169.947     872.136     346.779

 3  4  5  6  7  8  9  10  11  12  13  23  27  28  29  30  32 0
 6-311+G(2d,p)
 ****
 34  35 0
 6-311+G(2d,p)
 ****
 1  2  14  15  16  17  18  19  20  21  22  24  25  26 0
 3-21G
 ****
 31  33  36  37  38  39  40  41  42  43  44  45  46 0
 3-21G
 ****


