%nproc=1
%NoSave
%Mem=1900MB
#P OB98/GEN NMR

erre ene a

0 1
  C     -265.126     100.301      47.590
  O     -264.999     101.349      46.641
  P     -263.926     102.504      46.945
  C     -263.841     104.492      48.614
  O     -264.652     103.587      47.881
  C     -264.440     104.766      49.996
  O     -264.450     103.527      50.757
  C     -263.677     105.811      50.828
  O     -264.655     106.526      51.595
  C     -262.811     104.933      51.717
  O     -262.281     105.605      52.848
  C     -263.784     103.798      52.013
  N     -261.485     101.678      56.058
  C     -262.104     102.869      55.897
  N     -262.699     103.362      54.791
  C     -262.628     102.480      53.779
  C     -262.014     101.237      53.789
  C     -261.423     100.837      54.997
  N     -260.782      99.623      55.155
  N     -262.117     100.628      52.554
  C     -262.782     101.487      51.808
  N     -263.129     102.612      52.511
  O     -263.799     103.257      45.540
  O     -262.599     102.018      47.446
  H     -261.916     104.953      53.483
  H     -262.875     103.524      45.364
  H     -262.122     103.513      56.770
  H     -263.021     101.355      50.762
  H     -264.548     104.093      52.744
  H     -261.956     104.569      51.132
  H     -263.110     106.525      50.217
  H     -265.484     105.080      49.863
  H     -263.777     105.444      48.074
  H     -260.222      99.519      55.990
  H     -260.562      99.104      54.315
  H     -262.827     104.085      48.701
  P     -264.382     108.065      51.959
  C     -262.592     109.247      53.373
  O     -263.001     108.027      52.779
  O     -265.450     108.290      53.131
  O     -264.485     109.029      50.826
  H     -265.380     107.598      53.813
  H     -261.699     109.057      53.976
  H     -263.384     109.634      54.023
  H     -262.344     109.975      52.600
  H     -265.872      99.609      47.259
  H     -265.413     100.710      48.536
  H     -264.189      99.795      47.690

 3  4  5  6  7  8  9  10  11  12  22  25  29  30  31  32 0
 6-311+G(2d,p)
 ****
 33  36  37 0
 6-311+G(2d,p)
 ****
 1  2  13  14  15  16  17  18  19  20  21  23  24  26 0
 3-21G
 ****
 27  28  34  35  38  39  40  41  42  43  44  45  46  47  48 0
 3-21G
 ****


