%nproc=1
%NoSave
%Mem=1900MB
#P OB98/GEN NMR

erre ene a

0 1
  C      120.218     458.270    -311.892
  O      119.289     458.847    -310.987
  P      118.424     460.098    -311.507
  C      119.971     461.572    -310.035
  O      118.641     461.274    -310.440
  C      119.990     462.499    -308.813
  O      119.279     463.721    -309.142
  C      119.343     461.894    -307.565
  O      120.098     462.336    -306.429
  C      117.970     462.544    -307.527
  O      117.436     462.562    -306.205
  C      118.278     463.924    -308.125
  N      117.084     464.566    -308.670
  C      116.637     465.725    -308.029
  O      117.196     466.115    -307.004
  N      115.538     466.379    -308.535
  C      114.878     465.858    -309.519
  N      113.798     466.549    -309.985
  C      115.248     464.571    -310.149
  C      116.360     464.001    -309.694
  O      116.918     459.621    -311.233
  O      118.656     460.459    -312.937
  H      118.142     462.866    -305.589
  H      116.310     459.996    -311.900
  H      114.644     464.167    -310.946
  H      116.718     463.061    -310.109
  H      118.710     464.589    -307.359
  H      117.281     461.990    -308.175
  H      119.316     460.803    -307.583
  H      121.031     462.776    -308.613
  H      113.561     467.419    -309.526
  H      120.491     462.082    -310.851
  H      113.229     466.217    -310.754
  H      120.507     460.638    -309.818
  P      121.543     461.674    -306.193
  C      120.641     460.201    -304.286
  O      121.543     461.227    -304.653
  O      122.484     462.969    -306.155
  O      122.036     460.678    -307.186
  H      123.416     462.692    -306.075
  H      120.844     459.902    -303.248
  H      120.768     459.328    -304.938
  H      119.609     460.568    -304.346
  H      120.719     457.453    -311.416
  H      120.936     459.007    -312.185
  H      119.699     457.914    -312.757

 3  4  5  6  7  8  9  10  11  12  13  21  23  27  28  29  30  32 0
 6-311+G(2d,p)
 ****
 34  35 0
 6-311+G(2d,p)
 ****
 1  2  14  15  16  17  18  19  20  22  24  25  26 0
 3-21G
 ****
 31  33  36  37  38  39  40  41  42  43  44  45  46 0
 3-21G
 ****


