%nproc=1
%NoSave
%Mem=1900MB
#P OB98/GEN NMR

erre ene a

0 1
  C     -233.867      44.169     -82.273
  O     -232.738      44.437     -83.078
  H     -234.707      44.765     -82.632
  H     -233.658      44.443     -81.236
  H     -234.134      43.109     -82.330
  P     -231.416      43.575     -82.796
  C     -230.530      45.033     -80.826
  O     -231.066      43.785     -81.242
  C     -229.927      44.897     -79.428
  O     -228.830      43.945     -79.482
  C     -229.361      46.215     -78.879
  O     -229.602      46.277     -77.472
  C     -227.871      46.087     -79.143
  O     -227.070      46.899     -78.292
  C     -227.665      44.587     -78.930
  N     -226.445      44.091     -79.570
  C     -225.471      43.534     -78.750
  O     -225.587      43.362     -77.540
  N     -224.307      43.168     -79.385
  C     -224.022      43.326     -80.708
  O     -222.957      42.999     -81.206
  C     -225.093      43.926     -81.523
  C     -226.234      44.280     -80.925
  O     -230.266      44.403     -83.543
  O     -231.468      42.148     -83.229
  H     -230.165      44.095     -84.461
  H     -227.232      47.838     -78.530
  H     -223.587      42.763     -78.800
  H     -224.903      44.071     -82.577
  H     -227.036      44.736     -81.494
  H     -227.638      44.356     -77.858
  H     -227.650      46.367     -80.179
  H     -229.789      47.095     -79.363
  H     -230.682      44.479     -78.749
  H     -231.329      45.779     -80.800
  H     -229.767      45.352     -81.539
  P     -231.017      46.868     -76.989
  C     -229.994      49.098     -76.084
  O     -230.856      48.466     -77.014
  O     -231.005      46.493     -75.436
  O     -232.167      46.327     -77.767
  H     -230.127      46.563     -75.024
  H     -230.010      50.156     -76.245
  H     -228.997      48.732     -76.216
  H     -230.324      48.883     -75.089

 6  7  8  9  10  11  12  13  14  15  16  27  31  32  33  34  35 0
 6-311+G(2d,p)
 ****
 36  37 0
 6-311+G(2d,p)
 ****
 1  2  3  4  5  17  18  19  20  21  22  23  24  25 0
 3-21G
 ****
 26  28  29  30  38  39  40  41  42  43  44  45 0
 3-21G
 ****


