%nproc=1
%NoSave
%Mem=1900MB
#P OB98/GEN NMR

erre ene a

0 1
  C     -292.013    -894.640     332.521
  O     -293.166    -895.400     332.808
  P     -294.237    -895.750     331.664
  C     -295.802    -896.830     333.415
  O     -295.658    -895.830     332.411
  C     -297.032    -896.550     334.287
  O     -296.830    -895.380     335.103
  C     -298.287    -896.250     333.474
  O     -298.848    -897.280     332.679
  C     -299.183    -895.630     334.540
  O     -299.807    -896.650     335.324
  C     -298.154    -894.840     335.409
  N     -298.248    -893.400     335.177
  C     -299.083    -892.690     336.017
  O     -299.731    -893.200     336.929
  N     -299.182    -891.350     335.774
  C     -298.578    -890.670     334.736
  O     -298.749    -889.470     334.545
  C     -297.719    -891.470     333.848
  C     -297.584    -892.790     334.108
  O     -293.891    -896.920     330.819
  O     -294.352    -894.360     330.863
  H     -299.129    -897.290     335.614
  H     -294.645    -893.600     331.389
  H     -299.790    -890.810     336.375
  H     -297.225    -890.960     333.045
  H     -296.975    -893.410     333.472
  H     -298.337    -895.040     336.488
  H     -299.991    -895.030     334.112
  H     -298.062    -895.440     332.766
  H     -297.166    -897.390     334.947
  H     -294.909    -896.800     334.060
  H     -295.855    -897.820     332.944
  P     -299.002    -897.200     331.104
  C     -300.309    -899.440     331.151
  O     -300.235    -898.110     330.674
  O     -297.741    -897.310     330.284
  O     -299.591    -895.720     330.908
  H     -299.297    -895.350     330.052
  H     -301.190    -899.930     330.727
  H     -300.385    -899.460     332.220
  H     -299.422    -900.000     330.826
  H     -291.434    -894.520     333.413
  H     -292.302    -893.679     332.151
  H     -291.428    -895.145     331.781

 3  4  5  6  7  8  9  10  11  12  13  23  28  29  30  31  32 0
 6-311+G(2d,p)
 ****
 33  34 0
 6-311+G(2d,p)
 ****
 1  2  14  15  16  17  18  19  20  21  22  24  25  26  27 0
 3-21G
 ****
 35  36  37  38  39  40  41  42  43  44  45 0
 3-21G
 ****


