%nproc=1
%NoSave
%Mem=1900MB
#P OB98/GEN NMR

erre ene a

0 1
  C      165.502     122.194      89.292
  O      166.904     122.504      89.211
  P      168.058     121.413      89.442
  C      168.703     120.145      87.291
  O      168.943     121.282      88.106
  C      169.347     120.290      85.904
  O      168.645     121.320      85.131
  C      170.837     120.676      85.929
  O      171.464     119.951      84.868
  C      170.783     122.168      85.630
  O      172.018     122.707      85.190
  C      169.662     122.186      84.580
  N      169.109     123.499      84.272
  C      169.136     123.919      82.936
  O      169.668     123.238      82.057
  N      168.577     125.140      82.620
  C      168.043     125.872      83.548
  N      167.500     127.058      83.168
  C      168.008     125.478      84.965
  C      168.549     124.293      85.254
  O      167.555     120.099      89.951
  O      169.064     122.075      90.503
  H      169.416     121.377      91.093
  H      171.878     123.653      84.986
  H      167.548     126.113      85.709
  H      168.535     123.915      86.273
  H      170.020     121.711      83.663
  H      170.495     122.703      86.545
  H      171.335     120.429      86.875
  H      169.204     119.344      85.363
  H      167.536     127.295      82.179
  H      167.622     120.028      87.164
  H      167.057     127.702      83.803
  H      169.090     119.251      87.795
  P      172.803     119.111      85.162
  C      171.554     117.088      86.220
  O      172.407     117.556      85.198
  O      173.059     119.429      86.711
  O      174.009     119.489      84.358
  H      174.004     119.327      86.910
  H      170.803     116.419      85.778
  H      171.032     117.899      86.738
  H      172.143     116.517      86.949
  H      164.930     123.078      89.102
  H      165.274     121.825      90.270
  H      165.259     121.448      88.564

 3  4  5  6  7  8  9  10  11  12  13  24  27  28  29  30  32 0
 6-311+G(2d,p)
 ****
 34  35 0
 6-311+G(2d,p)
 ****
 1  2  14  15  16  17  18  19  20  21  22  23  25  26 0
 3-21G
 ****
 31  33  36  37  38  39  40  41  42  43  44  45  46 0
 3-21G
 ****


