%nproc=1
%NoSave
%Mem=1900MB
#P OB98/GEN NMR

erre ene a

0 1
  C     -407.296      31.081    -405.446
  O     -408.401      30.379    -405.984
  P     -408.710      28.881    -405.516
  C     -411.261      29.158    -405.685
  O     -410.161      28.853    -404.832
  C     -412.459      29.619    -404.866
  O     -412.219      30.924    -404.292
  C     -413.743      29.774    -405.675
  O     -414.303      28.526    -406.027
  C     -414.585      30.619    -404.725
  O     -415.186      29.799    -403.713
  C     -413.515      31.544    -404.100
  N     -413.551      32.888    -404.660
  C     -414.723      33.619    -404.434
  O     -415.684      33.096    -403.863
  N     -414.779      34.920    -404.861
  C     -413.808      35.408    -405.567
  N     -413.891      36.720    -405.913
  C     -412.622      34.618    -405.966
  C     -412.550      33.383    -405.460
  O     -407.630      28.227    -404.718
  O     -408.956      28.091    -406.889
  H     -408.407      27.281    -406.889
  H     -415.470      30.400    -402.996
  H     -411.872      35.048    -406.613
  H     -411.708      32.740    -405.680
  H     -413.659      31.610    -403.018
  H     -415.396      31.144    -405.241
  H     -413.530      30.354    -406.582
  H     -412.610      28.906    -404.043
  H     -414.708      37.238    -405.613
  H     -411.522      28.259    -406.252
  H     -413.073      37.270    -406.168
  H     -410.960      29.937    -406.399
  P     -413.943      27.957    -407.483
  C     -413.082      25.527    -407.249
  O     -412.755      26.901    -407.302
  O     -413.241      29.204    -408.208
  O     -415.121      27.465    -408.267
  H     -413.487      29.214    -409.150
  H     -412.188      24.942    -407.473
  H     -413.862      25.269    -407.968
  H     -413.417      25.273    -406.236
  H     -407.252      32.060    -405.876
  H     -406.394      30.552    -405.670
  H     -407.407      31.162    -404.385

 3  4  5  6  7  8  9  10  11  12  13  24  27  28  29  30  32 0
 6-311+G(2d,p)
 ****
 34  35 0
 6-311+G(2d,p)
 ****
 1  2  14  15  16  17  18  19  20  21  22  23  25  26 0
 3-21G
 ****
 31  33  36  37  38  39  40  41  42  43  44  45  46 0
 3-21G
 ****


