%nproc=1
%NoSave
%Mem=1900MB
#P OB98/GEN NMR

erre ene a

0 1
  C      217.870    -108.518     330.796
  O      218.588    -109.295     329.857
  H      218.277    -108.710     331.792
  H      216.812    -108.794     330.790
  H      217.980    -107.453     330.573
  P      218.156    -109.225     328.317
  C      219.572    -107.271     327.398
  O      218.301    -107.686     327.882
  C      219.558    -107.192     325.874
  O      219.245    -108.479     325.308
  C      218.534    -106.213     325.302
  O      219.035    -104.886     325.344
  C      218.401    -106.743     323.886
  O      219.544    -106.334     323.108
  C      218.442    -108.266     324.114
  N      214.569    -110.651     321.865
  C      215.672    -110.035     321.308
  N      215.736    -110.027     319.958
  N      216.618    -109.468     322.010
  C      216.384    -109.490     323.342
  C      215.324    -110.053     324.009
  C      214.314    -110.738     323.226
  O      213.333    -111.314     323.685
  N      215.380    -109.794     325.356
  C      216.506    -109.123     325.505
  N      217.151    -108.902     324.311
  O      216.825    -109.828     327.979
  O      219.356    -109.938     327.537
  H      219.280    -106.373     322.170
  H      219.180    -110.891     327.416
  H      213.866    -111.064     321.274
  H      216.902    -108.775     326.454
  H      218.932    -108.795     323.289
  H      217.513    -106.373     323.376
  H      214.972    -110.312     319.367
  H      217.566    -106.305     325.808
  H      216.510    -109.529     319.534
  H      220.574    -106.936     325.542
  H      220.311    -108.003     327.738
  H      219.834    -106.290     327.812
  P      218.051    -103.616     325.286
  C      217.880    -103.640     327.868
  O      217.186    -103.692     326.634
  O      217.251    -103.499     324.037
  O      219.005    -102.368     325.574
  H      219.453    -102.029     324.758
  H      217.179    -103.700     328.674
  H      218.421    -102.719     327.934
  H      218.564    -104.461     327.928

 6  7  8  9  10  11  12  13  14  15  26  29  33  34 0
 6-311+G(2d,p)
 ****
 36  38  39  40  41 0
 6-311+G(2d,p)
 ****
 1  2  3  4  5  16  17  18  19  20  21  22  23  24  25 0
 3-21G
 ****
 27  28  30  31  32  35  37  42  43  44  45  46  47 0
 3-21G
 ****
 48  49 0
 3-21G
 ****


