%nproc=1
%NoSave
%Mem=1900MB
#P OB98/GEN NMR

erre ene a

0 1
  C      357.814    -585.519     -54.564
  O      356.835    -586.434     -55.073
  P      356.787    -587.928     -54.504
  C      358.504    -589.253     -55.882
  O      358.231    -588.606     -54.649
  C      359.780    -590.112     -55.788
  O      359.561    -591.204     -54.842
  C      360.200    -590.723     -57.137
  O      361.586    -590.497     -57.459
  C      359.791    -592.187     -57.003
  O      360.526    -593.047     -57.863
  C      359.927    -592.447     -55.493
  N      359.085    -593.561     -55.042
  C      359.748    -594.746     -54.749
  O      360.955    -594.914     -54.905
  N      358.949    -595.771     -54.312
  C      357.589    -595.757     -54.223
  O      356.925    -596.720     -53.867
  C      356.937    -594.499     -54.618
  C      357.705    -593.470     -55.005
  O      355.646    -588.760     -54.982
  O      356.671    -587.690     -52.918
  H      360.165    -593.971     -57.766
  H      356.064    -588.371     -52.544
  H      359.427    -596.637     -54.065
  H      355.873    -594.456     -54.587
  H      357.261    -592.543     -55.316
  H      360.957    -592.673     -55.229
  H      358.737    -592.277     -57.278
  H      359.649    -590.276     -57.975
  H      360.572    -589.470     -55.395
  H      358.645    -588.508     -56.674
  H      357.639    -589.874     -56.183
  P      362.076    -589.484     -58.595
  C      362.022    -591.000     -60.692
  O      361.432    -589.919     -59.991
  O      363.546    -589.233     -58.632
  O      361.300    -588.130     -58.229
  H      361.894    -587.354     -58.368
  H      361.727    -590.931     -61.748
  H      361.654    -591.950     -60.275
  H      363.122    -590.974     -60.635
  H      357.705    -584.572     -55.051
  H      358.794    -585.905     -54.751
  H      357.674    -585.397     -53.510

 3  4  5  6  7  8  9  10  11  12  13  23  28  29  30  31  32 0
 6-311+G(2d,p)
 ****
 33  34 0
 6-311+G(2d,p)
 ****
 1  2  14  15  16  17  18  19  20  21  22  24  25  26  27 0
 3-21G
 ****
 35  36  37  38  39  40  41  42  43  44  45 0
 3-21G
 ****


