%nproc=1
%NoSave
%Mem=1900MB
#P OB98/GEN NMR

erre ene a

0 1
  C     -287.980    -265.514    -238.118
  O     -286.634    -265.910    -237.850
  P     -286.241    -266.387    -236.368
  C     -284.314    -264.699    -236.219
  O     -284.694    -266.062    -236.104
  C     -282.789    -264.513    -236.290
  O     -282.132    -265.302    -235.252
  C     -282.163    -264.924    -237.625
  O     -281.081    -264.017    -237.874
  C     -281.640    -266.320    -237.338
  O     -280.667    -266.741    -238.279
  C     -281.144    -266.129    -235.899
  N     -280.969    -267.397    -235.203
  C     -279.656    -267.800    -234.934
  O     -278.706    -267.146    -235.376
  N     -279.461    -268.947    -234.206
  C     -280.477    -269.697    -233.902
  N     -280.237    -270.815    -233.159
  C     -281.859    -269.394    -234.325
  C     -282.031    -268.230    -234.942
  O     -286.663    -267.779    -236.008
  O     -286.988    -265.309    -235.437
  H     -279.962    -266.061    -238.342
  H     -287.292    -265.753    -234.617
  H     -282.659    -270.093    -234.124
  H     -283.003    -267.910    -235.283
  H     -280.196    -265.586    -235.883
  H     -282.476    -267.037    -237.370
  H     -282.865    -264.878    -238.466
  H     -282.564    -263.459    -236.084
  H     -279.286    -271.029    -232.897
  H     -284.704    -264.142    -235.361
  H     -280.983    -271.423    -232.846
  H     -284.800    -264.260    -237.102
  P     -280.956    -263.326    -239.313
  C     -278.537    -264.219    -239.680
  O     -279.399    -263.098    -239.619
  O     -281.453    -261.827    -239.004
  O     -281.781    -263.921    -240.406
  H     -281.792    -261.430    -239.827
  H     -277.600    -263.912    -240.167
  H     -278.984    -265.028    -240.260
  H     -278.315    -264.571    -238.667
  H     -288.070    -265.228    -239.145
  H     -288.239    -264.685    -237.493
  H     -288.639    -266.332    -237.917

 3  4  5  6  7  8  9  10  11  12  13  23  27  28  29  30  32 0
 6-311+G(2d,p)
 ****
 34  35 0
 6-311+G(2d,p)
 ****
 1  2  14  15  16  17  18  19  20  21  22  24  25  26 0
 3-21G
 ****
 31  33  36  37  38  39  40  41  42  43  44  45  46 0
 3-21G
 ****


