%nproc=1
%NoSave
%Mem=1900MB
#P OB98/GEN NMR

erre ene a

0 1
  C     -471.776     540.366     417.235
  O     -472.794     541.206     417.747
  H     -472.001     539.330     417.513
  H     -470.808     540.641     417.663
  H     -471.737     540.435     416.141
  P     -472.757     542.772     417.400
  C     -473.722     543.233     419.742
  O     -473.841     543.484     418.344
  C     -474.965     542.518     420.268
  O     -475.108     541.252     419.579
  C     -474.922     542.237     421.777
  O     -476.233     542.421     422.310
  C     -474.538     540.771     421.846
  O     -474.999     540.147     423.046
  C     -475.192     540.219     420.575
  N     -475.940     535.644     418.544
  C     -476.840     536.660     418.802
  N     -478.138     536.426     418.513
  N     -476.499     537.817     419.325
  C     -475.166     537.923     419.558
  C     -474.179     536.995     419.342
  C     -474.572     535.718     418.784
  O     -473.826     534.769     418.539
  N     -472.945     537.465     419.731
  C     -473.196     538.688     420.190
  N     -474.526     539.007     420.114
  O     -472.885     543.105     415.948
  O     -471.361     543.271     418.000
  H     -475.945     540.399     423.153
  H     -470.690     543.346     417.295
  H     -476.256     534.773     418.152
  H     -472.456     539.365     420.587
  H     -476.248     539.963     420.729
  H     -473.442     540.672     421.799
  H     -478.470     535.567     418.101
  H     -474.207     542.878     422.309
  H     -478.807     537.163     418.679
  H     -475.851     543.124     420.014
  H     -473.596     544.194     420.255
  H     -472.833     542.618     419.925
  P     -476.485     543.619     423.344
  C     -478.039     542.154     424.798
  O     -477.899     543.368     424.069
  O     -476.282     544.990     422.808
  O     -475.440     543.297     424.525
  H     -475.162     544.134     424.941
  H     -479.017     542.108     425.229
  H     -477.305     542.118     425.575
  H     -477.901     541.323     424.138

 6  7  8  9  10  11  12  13  14  15  26  29  33  34 0
 6-311+G(2d,p)
 ****
 36  38  39  40  41 0
 6-311+G(2d,p)
 ****
 1  2  3  4  5  16  17  18  19  20  21  22  23  24  25 0
 3-21G
 ****
 27  28  30  31  32  35  37  42  43  44  45  46  47 0
 3-21G
 ****
 48  49 0
 3-21G
 ****


