%nproc=1
%NoSave
%Mem=1900MB
#P OB98/GEN NMR

erre ene a

0 1
  C      200.746    -889.817     744.641
  O      201.849    -890.697     744.743
  H      200.158    -890.087     743.749
  H      201.091    -888.787     744.524
  H      200.096    -889.897     745.515
  P      202.760    -890.637     746.061
  C      202.258    -892.927     747.116
  O      203.191    -892.147     746.391
  C      202.436    -894.427     746.783
  O      202.147    -894.617     745.362
  C      203.859    -894.947     747.036
  O      203.726    -896.347     747.360
  C      204.471    -894.787     745.642
  O      205.717    -895.447     745.513
  C      203.310    -895.267     744.781
  N      203.404    -894.957     743.353
  C      204.095    -895.857     742.540
  O      204.641    -896.887     742.951
  N      204.185    -895.527     741.227
  C      203.629    -894.397     740.633
  O      203.722    -894.187     739.429
  C      202.914    -893.487     741.538
  C      202.836    -893.817     742.833
  O      202.201    -889.867     747.200
  O      204.141    -889.997     745.535
  H      204.181    -889.047     745.783
  H      206.001    -895.417     744.568
  H      204.665    -896.157     740.617
  H      202.496    -892.617     741.113
  H      202.306    -893.167     743.532
  H      203.160    -896.337     744.905
  H      204.695    -893.737     745.475
  H      204.381    -894.437     747.826
  H      201.689    -894.997     747.341
  H      201.241    -892.607     746.841
  H      202.398    -892.767     748.182
  P      204.516    -897.047     748.578
  C      202.736    -898.937     748.743
  O      204.134    -898.607     748.595
  O      204.329    -896.377     749.901
  O      206.055    -897.037     748.142
  H      206.629    -897.057     748.951
  H      202.618    -900.000     748.739
  H      202.182    -898.513     747.932
  H      202.372    -898.541     749.668

 6  7  8  9  10  11  12  13  14  15  16  27  31  32  33  34  35 0
 6-311+G(2d,p)
 ****
 36  37 0
 6-311+G(2d,p)
 ****
 1  2  3  4  5  17  18  19  20  21  22  23  24  25 0
 3-21G
 ****
 26  28  29  30  38  39  40  41  42  43  44  45 0
 3-21G
 ****


