%nproc=1
%NoSave
%Mem=1900MB
#P OB98/GEN NMR

erre ene a

0 1
  C     -829.759     420.612    -273.480
  O     -830.847     420.611    -272.547
  P     -830.481     421.022    -271.030
  C     -832.890     420.755    -270.047
  O     -831.556     420.271    -270.108
  C     -833.741     419.826    -269.162
  O     -833.938     418.555    -269.808
  C     -833.118     419.536    -267.804
  O     -833.374     420.588    -266.901
  C     -833.817     418.218    -267.441
  O     -835.142     418.474    -266.902
  C     -833.918     417.516    -268.800
  N     -832.035     412.918    -267.815
  C     -833.099     413.580    -267.224
  N     -833.788     412.915    -266.283
  N     -833.465     414.817    -267.548
  C     -832.661     415.349    -268.504
  C     -831.582     414.794    -269.146
  C     -831.227     413.444    -268.818
  O     -830.358     412.766    -269.367
  N     -831.011     415.679    -270.029
  C     -831.789     416.757    -269.967
  N     -832.820     416.603    -269.072
  O     -830.904     422.556    -270.971
  O     -829.044     420.782    -270.636
  H     -835.070     418.659    -265.946
  H     -830.108     423.129    -271.078
  H     -831.825     411.973    -267.533
  H     -831.655     417.644    -270.559
  H     -834.845     416.939    -268.899
  H     -833.283     417.674    -266.670
  H     -833.562     411.989    -265.962
  H     -832.030     419.348    -267.911
  H     -834.568     413.394    -265.842
  H     -834.739     420.304    -269.038
  H     -833.305     420.759    -271.061
  H     -832.893     421.788    -269.650
  P     -832.451     420.659    -265.582
  C     -834.612     420.722    -264.117
  O     -833.354     420.132    -264.363
  O     -832.321     422.243    -265.302
  O     -831.109     420.028    -265.717
  H     -831.428     422.432    -264.958
  H     -835.264     419.986    -263.660
  H     -835.062     421.099    -265.042
  H     -834.472     421.565    -263.423
  H     -830.118     420.326    -274.447
  H     -829.012     419.918    -273.157
  H     -829.335     421.593    -273.533

 3  4  5  6  7  8  9  10  11  12  23  26  30  31 0
 6-311+G(2d,p)
 ****
 33  35  36  37  38 0
 6-311+G(2d,p)
 ****
 1  2  13  14  15  16  17  18  19  20  21  22  24  25 0
 3-21G
 ****
 27  28  29  32  34  39  40  41  42  43  44  45  46  47  48  49 0
 3-21G
 ****


