%nproc=1
%NoSave
%Mem=1900MB
#P OB98/GEN NMR

erre ene a

0 1
  C      149.111      82.391    -105.753
  O      147.883      82.348    -105.053
  H      149.716      83.206    -105.346
  H      148.941      82.580    -106.817
  H      149.655      81.451    -105.624
  P      146.777      81.284    -105.513
  C      145.316      80.950    -107.624
  O      146.417      81.639    -107.035
  C      145.445      80.938    -109.148
  O      146.636      80.229    -109.544
  C      144.290      80.245    -109.864
  O      143.138      81.067    -109.868
  C      144.918      79.993    -111.226
  O      144.919      81.187    -112.021
  C      146.362      79.603    -110.825
  N      146.577      78.160    -110.752
  C      147.551      77.641    -111.616
  O      148.155      78.385    -112.387
  N      147.793      76.289    -111.587
  C      147.160      75.532    -110.747
  N      147.450      74.198    -110.767
  C      146.153      76.045    -109.796
  C      145.907      77.351    -109.858
  O      145.589      81.133    -104.616
  O      147.593      79.910    -105.646
  H      145.467      81.835    -111.536
  H      147.532      79.395    -104.821
  H      145.657      75.378    -109.104
  H      145.183      77.814    -109.195
  H      147.085      80.022    -111.539
  H      144.384      79.230    -111.793
  H      144.078      79.275    -109.395
  H      145.552      81.977    -109.485
  H      148.161      73.898    -111.424
  H      144.407      81.482    -107.328
  H      147.143      73.551    -110.058
  H      145.255      79.923    -107.245
  P      141.673      80.459    -109.649
  C      140.098      78.946    -111.012
  O      141.391      79.525    -110.927
  O      140.606      81.462    -109.359
  O      141.877      79.388    -108.478
  H      141.944      79.845    -107.601
  H      140.031      78.350    -111.898
  H      139.362      79.721    -111.047
  H      139.926      78.330    -110.154

 6  7  8  9  10  11  12  13  14  15  16  26  30  31  32  33  35 0
 6-311+G(2d,p)
 ****
 37  38 0
 6-311+G(2d,p)
 ****
 1  2  3  4  5  17  18  19  20  21  22  23  24  25 0
 3-21G
 ****
 27  28  29  34  36  39  40  41  42  43  44  45  46 0
 3-21G
 ****


