%nproc=1
%NoSave
%Mem=1900MB
#P OB98/GEN NMR

erre ene a

0 1
  C     -899.079    -407.853    1760.505
  O     -897.979    -408.613    1761.026
  P     -897.819    -410.130    1760.557
  C     -895.269    -410.473    1760.146
  O     -896.549    -410.225    1759.584
  C     -894.449    -409.173    1760.212
  O     -895.159    -408.139    1760.921
  C     -893.119    -409.333    1760.927
  O     -892.119    -409.850    1760.056
  C     -892.799    -407.895    1761.284
  O     -892.259    -407.215    1760.124
  C     -894.179    -407.337    1761.640
  N     -894.729    -404.508    1765.806
  C     -894.469    -404.137    1764.491
  N     -894.349    -402.819    1764.264
  N     -894.349    -404.994    1763.509
  C     -894.519    -406.266    1763.880
  C     -894.789    -406.771    1765.128
  C     -894.899    -405.817    1766.228
  O     -895.119    -406.102    1767.398
  N     -894.879    -408.126    1765.114
  C     -894.699    -408.445    1763.857
  N     -894.459    -407.375    1763.065
  O     -899.049    -410.323    1759.557
  O     -897.839    -411.121    1761.688
  H     -892.959    -407.249    1759.440
  H     -899.329    -411.267    1759.564
  H     -894.809    -403.814    1766.520
  H     -894.739    -409.479    1763.475
  H     -894.319    -406.301    1761.312
  H     -892.039    -407.816    1762.070
  H     -894.479    -402.101    1764.967
  H     -893.229    -409.946    1761.834
  H     -894.179    -402.519    1763.313
  H     -894.269    -408.828    1759.184
  H     -894.739    -411.220    1759.527
  H     -895.389    -410.930    1761.127
  P     -891.989    -411.456    1759.910
  C     -892.299    -411.677    1757.329
  O     -892.859    -411.850    1758.627
  O     -892.869    -411.989    1761.132
  O     -890.609    -411.967    1759.951
  H     -892.509    -412.834    1761.470
  H     -892.949    -412.132    1756.597
  H     -891.309    -412.177    1757.286
  H     -892.189    -410.605    1757.097
  H     -899.052    -406.863    1760.909
  H     -900.000    -408.324    1760.779
  H     -899.006    -407.805    1759.439

 3  4  5  6  7  8  9  10  11  12  23  26  30  31 0
 6-311+G(2d,p)
 ****
 33  35  36  37  38 0
 6-311+G(2d,p)
 ****
 1  2  13  14  15  16  17  18  19  20  21  22  24  25 0
 3-21G
 ****
 27  28  29  32  34  39  40  41  42  43  44  45  46  47  48  49 0
 3-21G
 ****


