%nproc=1
%NoSave
%Mem=1900MB
#P OB98/GEN NMR

erre ene a

0 1
  C      792.653     186.608     193.971
  O      792.700     187.819     193.241
  H      791.927     186.717     194.782
  H      793.634     186.399     194.402
  H      792.342     185.780     193.330
  P      793.551     187.804     191.880
  C      793.310     190.389     192.000
  O      793.311     189.230     191.178
  C      793.004     191.629     191.163
  O      794.098     191.908     190.257
  C      791.751     191.509     190.300
  O      790.571     191.789     191.041
  C      792.023     192.592     189.269
  O      791.757     193.889     189.836
  C      793.529     192.419     189.011
  N      794.745     192.066     184.107
  C      794.467     193.185     184.875
  N      794.515     194.378     184.246
  N      794.165     193.139     186.148
  C      794.149     191.876     186.645
  C      794.407     190.697     185.985
  C      794.741     190.761     184.581
  O      795.026     189.811     183.857
  N      794.306     189.616     186.826
  C      793.958     190.142     187.988
  N      793.850     191.509     187.930
  O      792.734     186.791     190.942
  O      794.976     187.388     192.019
  H      790.795     193.940     189.982
  H      793.371     186.289     190.394
  H      794.958     192.163     183.126
  H      793.784     189.579     188.893
  H      794.027     193.371     188.797
  H      791.393     192.495     188.376
  H      794.687     194.480     183.257
  H      791.697     190.534     189.802
  H      794.351     195.213     184.790
  H      792.922     192.487     191.847
  H      794.296     190.501     192.465
  H      792.553     190.266     192.784
  P      789.388     190.705     190.995
  C      787.841     192.748     191.411
  O      788.136     191.390     191.725
  O      789.879     189.599     192.051
  O      789.127     190.108     189.651
  H      789.459     188.742     191.859
  H      786.986     193.066     191.970
  H      787.635     192.836     190.365
  H      788.680     193.363     191.662

 6  7  8  9  10  11  12  13  14  15  26  29  33  34 0
 6-311+G(2d,p)
 ****
 36  38  39  40  41 0
 6-311+G(2d,p)
 ****
 1  2  3  4  5  16  17  18  19  20  21  22  23  24  25 0
 3-21G
 ****
 27  28  30  31  32  35  37  42  43  44  45  46  47 0
 3-21G
 ****
 48  49 0
 3-21G
 ****


