%nproc=1
%NoSave
%Mem=1900MB
#P OB98/GEN NMR

erre ene a

0 1
  C     -506.770      73.738     312.365
  O     -505.780      73.326     313.283
  P     -504.785      72.123     312.960
  C     -502.575      73.404     313.371
  O     -503.448      72.368     313.829
  C     -501.192      73.228     313.990
  O     -501.289      73.388     315.441
  C     -500.573      71.827     313.708
  O     -499.267      71.860     313.137
  C     -500.680      71.141     315.059
  O     -499.795      70.041     315.218
  C     -500.512      72.316     316.025
  N     -500.945      71.996     317.386
  C     -499.946      71.681     318.311
  O     -498.749      71.671     318.069
  N     -500.392      71.310     319.561
  C     -501.680      71.105     319.915
  O     -502.008      70.676     321.028
  C     -502.689      71.409     318.889
  C     -502.290      71.856     317.693
  O     -504.525      71.889     311.503
  O     -505.444      70.879     313.711
  H     -499.910      69.703     316.120
  H     -505.544      70.990     314.667
  H     -499.667      71.086     320.233
  H     -503.723      71.249     319.143
  H     -503.009      72.099     316.910
  H     -499.475      72.647     316.075
  H     -501.705      70.737     315.153
  H     -501.168      71.286     312.973
  H     -500.539      74.018     313.595
  H     -502.984      74.365     313.681
  H     -502.535      73.392     312.277
  P     -498.593      70.669     312.309
  C     -498.091      72.196     310.249
  O     -497.591      71.308     311.231
  O     -499.555      69.667     311.755
  O     -497.609      69.984     313.372
  H     -497.500      69.034     313.151
  H     -497.463      72.129     309.363
  H     -498.053      73.220     310.638
  H     -499.123      71.953     309.975
  H     -507.323      74.555     312.779
  H     -507.434      72.923     312.166
  H     -506.304      74.049     311.453

 3  4  5  6  7  8  9  10  11  12  13  23  28  29  30  31  32 0
 6-311+G(2d,p)
 ****
 33  34 0
 6-311+G(2d,p)
 ****
 1  2  14  15  16  17  18  19  20  21  22  24  25  26  27 0
 3-21G
 ****
 35  36  37  38  39  40  41  42  43  44  45 0
 3-21G
 ****


