%nproc=1
%NoSave
%Mem=1900MB
#P OB98/GEN NMR

erre ene a

0 1
  C       24.767    -145.835     114.305
  O       25.596    -145.020     113.502
  H       25.055    -145.705     115.351
  H       24.881    -146.889     114.039
  H       23.721    -145.534     114.192
  P       25.488    -145.142     111.908
  C       25.096    -142.637     111.455
  O       25.984    -143.737     111.310
  C       25.473    -141.506     110.497
  O       26.682    -140.867     110.990
  C       25.734    -141.980     109.062
  O       25.237    -140.984     108.165
  C       27.246    -142.042     109.004
  O       27.721    -141.937     107.676
  C       27.658    -140.895     109.933
  N       29.014    -141.089     110.444
  C       30.033    -140.384     109.796
  O       29.767    -139.635     108.854
  N       31.332    -140.592     110.178
  C       31.601    -141.471     111.092
  N       32.914    -141.656     111.397
  C       30.562    -142.258     111.785
  C       29.304    -142.019     111.417
  O       24.182    -145.622     111.372
  O       26.681    -146.140     111.526
  H       27.461    -141.066     107.305
  H       26.359    -147.060     111.523
  H       30.838    -142.982     112.536
  H       28.475    -142.558     111.863
  H       27.615    -139.933     109.407
  H       27.591    -143.001     109.410
  H       25.275    -142.947     108.841
  H       24.681    -140.749     110.524
  H       33.592    -141.112     110.878
  H       25.168    -142.282     112.489
  H       33.247    -142.340     112.059
  H       24.069    -142.963     111.265
  P       23.955    -141.280     107.245
  C       22.758    -139.202     108.135
  O       23.178    -139.901     106.969
  O       23.086    -142.396     107.725
  O       24.585    -141.638     105.814
  H       23.997    -142.263     105.351
  H       22.253    -138.303     107.849
  H       23.612    -138.958     108.731
  H       22.093    -139.820     108.701

 6  7  8  9  10  11  12  13  14  15  16  26  30  31  32  33  35 0
 6-311+G(2d,p)
 ****
 37  38 0
 6-311+G(2d,p)
 ****
 1  2  3  4  5  17  18  19  20  21  22  23  24  25 0
 3-21G
 ****
 27  28  29  34  36  39  40  41  42  43  44  45  46 0
 3-21G
 ****


