%nproc=1
%NoSave
%Mem=1900MB
#P OB98/GEN NMR

erre ene a

0 1
  C      467.265     268.265    -130.295
  O      465.875     268.513    -130.334
  H      467.797     269.140    -129.917
  H      467.455     267.423    -129.620
  H      467.633     268.005    -131.294
  P      465.379     269.710    -131.282
  C      464.414     271.055    -129.279
  O      465.348     271.018    -130.349
  C      464.545     272.382    -128.535
  O      465.898     272.555    -128.056
  C      464.245     273.610    -129.382
  O      462.853     273.855    -129.502
  C      464.927     274.691    -128.559
  O      464.109     275.024    -127.424
  C      466.207     273.979    -128.105
  N      470.290     276.908    -129.058
  C      469.341     276.965    -128.103
  N      468.281     276.153    -127.919
  C      468.259     275.188    -128.856
  C      469.152     275.004    -129.893
  C      470.221     275.918    -129.979
  N      471.185     275.866    -130.963
  N      468.779     273.925    -130.676
  C      467.695     273.450    -130.092
  N      467.335     274.188    -128.994
  O      463.824     269.390    -131.510
  O      466.126     269.875    -132.564
  H      464.619     275.656    -126.886
  H      463.506     269.852    -132.309
  H      469.443     277.788    -127.392
  H      467.142     272.584    -130.425
  H      466.523     274.278    -127.102
  H      465.091     275.615    -129.119
  H      464.728     273.549    -130.366
  H      463.884     272.343    -127.655
  H      464.623     270.233    -128.591
  H      471.790     276.670    -131.041
  H      471.049     275.223    -131.731
  H      463.399     270.938    -129.678
  P      462.390     274.998    -130.532
  C      461.143     276.179    -128.575
  O      462.084     276.296    -129.637
  O      460.940     274.508    -130.989
  O      463.316     275.208    -131.688
  H      460.723     274.849    -131.878
  H      461.049     277.121    -128.076
  H      461.480     275.439    -127.879
  H      460.192     275.889    -128.971

 6  7  8  9  10  11  12  13  14  15  25  28  32  33  34  35 0
 6-311+G(2d,p)
 ****
 36  39  40 0
 6-311+G(2d,p)
 ****
 1  2  3  4  5  16  17  18  19  20  21  22  23  24 0
 3-21G
 ****
 26  27  29  30  31  37  38  41  42  43  44  45  46  47 0
 3-21G
 ****
 48 0
 3-21G
 ****


