%nproc=1
%NoSave
%Mem=1900MB
#P OB98/GEN NMR

erre ene a

0 1
  C     -161.083     480.702    -198.960
  O     -162.111     479.748    -198.757
  P     -162.864     479.176    -200.060
  C     -165.074     480.062    -199.001
  O     -164.256     479.965    -200.162
  C     -165.611     481.483    -198.843
  O     -164.523     482.421    -198.694
  C     -166.418     481.983    -200.035
  O     -167.751     481.515    -200.023
  C     -166.375     483.484    -199.807
  O     -167.350     483.860    -198.815
  C     -164.955     483.688    -199.256
  N     -162.038     487.498    -200.877
  C     -162.723     487.352    -199.683
  N     -162.666     488.397    -198.827
  N     -163.397     486.280    -199.358
  C     -163.369     485.317    -200.311
  C     -162.726     485.345    -201.530
  C     -161.992     486.548    -201.887
  O     -161.407     486.751    -202.948
  N     -162.920     484.181    -202.227
  C     -163.675     483.448    -201.436
  N     -164.015     484.106    -200.282
  O     -163.316     477.704    -199.606
  O     -162.033     479.156    -201.299
  H     -168.197     483.988    -199.289
  H     -163.532     477.166    -200.389
  H     -161.543     488.347    -201.084
  H     -164.019     482.445    -201.659
  H     -164.931     484.428    -198.447
  H     -166.595     484.060    -200.710
  H     -162.223     489.271    -199.046
  H     -165.913     481.743    -200.982
  H     -163.213     488.344    -197.974
  H     -166.215     481.517    -197.921
  H     -164.481     479.791    -198.124
  H     -165.903     479.349    -199.085
  P     -168.235     480.652    -201.288
  C     -169.874     482.620    -201.717
  O     -168.947     481.701    -202.267
  O     -169.445     479.786    -200.699
  O     -167.166     479.798    -201.899
  H     -169.549     478.959    -201.203
  H     -170.060     483.415    -202.452
  H     -169.492     483.073    -200.802
  H     -170.827     482.109    -201.505
  H     -160.674     480.992    -198.015
  H     -161.487     481.562    -199.453
  H     -160.312     480.273    -199.566

 3  4  5  6  7  8  9  10  11  12  23  26  30  31 0
 6-311+G(2d,p)
 ****
 33  35  36  37  38 0
 6-311+G(2d,p)
 ****
 1  2  13  14  15  16  17  18  19  20  21  22  24  25 0
 3-21G
 ****
 27  28  29  32  34  39  40  41  42  43  44  45  46  47  48  49 0
 3-21G
 ****


