%nproc=1
%NoSave
%Mem=1900MB
#P OB98/GEN NMR

erre ene a

0 1
  C      332.823     -39.333     -45.014
  O      333.695     -39.003     -46.096
  P      334.724     -37.787     -45.907
  C      334.708     -35.211     -46.092
  O      333.956     -36.413     -46.221
  C      334.171     -34.127     -47.043
  O      334.474     -34.511     -48.411
  C      332.655     -33.919     -46.993
  O      332.128     -32.980     -46.060
  C      332.386     -33.343     -48.385
  O      332.647     -31.926     -48.385
  C      333.409     -34.051     -49.270
  N      329.900     -35.444     -52.731
  C      330.226     -34.240     -52.208
  N      331.173     -33.956     -51.289
  C      331.830     -35.069     -50.920
  C      331.609     -36.363     -51.368
  C      330.588     -36.537     -52.319
  N      330.247     -37.763     -52.843
  N      332.473     -37.246     -50.753
  C      333.190     -36.499     -49.934
  N      332.849     -35.175     -50.008
  O      336.050     -37.946     -46.565
  O      334.888     -37.721     -44.309
  H      332.526     -31.622     -49.305
  H      335.815     -37.499     -44.095
  H      329.648     -33.394     -52.574
  H      333.963     -36.872     -49.274
  H      333.856     -33.378     -50.014
  H      331.346     -33.470     -48.696
  H      332.131     -34.880     -46.884
  H      334.686     -33.177     -46.834
  H      335.759     -35.409     -46.317
  H      329.473     -37.804     -53.486
  H      330.710     -38.592     -52.501
  H      334.666     -34.906     -45.041
  P      331.278     -33.456     -44.789
  C      328.980     -34.689     -44.526
  O      329.910     -34.049     -45.377
  O      331.099     -32.427     -43.724
  O      332.063     -34.769     -44.313
  H      331.998     -35.520     -44.930
  H      328.041     -34.821     -45.070
  H      328.793     -34.086     -43.633
  H      329.366     -35.675     -44.239
  H      332.203     -40.159     -45.294
  H      332.208     -38.489     -44.781
  H      333.404     -39.598     -44.156

 3  4  5  6  7  8  9  10  11  12  22  25  29  30  31  32 0
 6-311+G(2d,p)
 ****
 33  36  37 0
 6-311+G(2d,p)
 ****
 1  2  13  14  15  16  17  18  19  20  21  23  24  26 0
 3-21G
 ****
 27  28  34  35  38  39  40  41  42  43  44  45  46  47  48 0
 3-21G
 ****


