%nproc=1
%NoSave
%Mem=1900MB
#P OB98/GEN NMR

erre ene a

0 1
  C     -175.765     554.238    -286.710
  O     -174.551     554.528    -286.054
  H     -176.591     554.597    -286.090
  H     -175.865     553.156    -286.836
  H     -175.821     554.727    -287.685
  P     -173.196     554.521    -286.904
  C     -173.379     556.859    -287.979
  O     -173.422     555.454    -288.192
  C     -172.345     557.541    -288.876
  O     -171.020     557.043    -288.577
  C     -172.579     557.254    -290.358
  O     -173.526     558.093    -290.995
  C     -171.185     557.459    -290.942
  O     -170.956     558.847    -291.243
  C     -170.272     556.998    -289.804
  N     -166.165     554.075    -290.639
  C     -166.248     555.453    -290.556
  N     -165.106     556.135    -290.785
  N     -167.358     556.091    -290.297
  C     -168.440     555.282    -290.188
  C     -168.480     553.905    -290.262
  C     -167.236     553.203    -290.499
  O     -167.107     551.987    -290.586
  N     -169.758     553.432    -290.097
  C     -170.497     554.519    -289.996
  N     -169.738     555.665    -290.020
  O     -173.162     553.051    -287.547
  O     -171.947     554.796    -286.124
  H     -171.786     559.225    -291.586
  H     -172.242     552.788    -287.727
  H     -165.277     553.635    -290.815
  H     -171.576     554.530    -289.881
  H     -169.414     557.671    -289.680
  H     -171.052     556.907    -291.877
  H     -164.257     555.693    -291.103
  H     -172.860     556.206    -290.504
  H     -165.181     557.133    -290.998
  H     -172.340     558.617    -288.669
  H     -173.121     557.011    -286.930
  H     -174.368     557.297    -288.136
  P     -174.145     557.673    -292.411
  C     -176.363     556.537    -291.655
  O     -175.053     556.376    -292.157
  O     -172.873     557.101    -293.198
  O     -174.810     558.777    -293.156
  H     -172.494     557.792    -293.772
  H     -176.824     555.577    -291.546
  H     -176.935     557.132    -292.336
  H     -176.323     557.023    -290.703

 6  7  8  9  10  11  12  13  14  15  26  29  33  34 0
 6-311+G(2d,p)
 ****
 36  38  39  40  41 0
 6-311+G(2d,p)
 ****
 1  2  3  4  5  16  17  18  19  20  21  22  23  24  25 0
 3-21G
 ****
 27  28  30  31  32  35  37  42  43  44  45  46  47 0
 3-21G
 ****
 48  49 0
 3-21G
 ****


