%nproc=1
%NoSave
%Mem=1900MB
#P OB98/GEN NMR

erre ene a

0 1
  C     -175.742       0.052    -505.494
  O     -176.856       0.812    -505.057
  P     -177.523       1.840    -506.088
  C     -178.882      -0.057    -507.227
  O     -177.966       1.015    -507.394
  C     -180.004       0.022    -508.263
  O     -180.708       1.284    -508.123
  C     -179.510      -0.065    -509.711
  O     -180.493      -0.743    -510.508
  C     -179.483       1.380    -510.161
  O     -179.569       1.488    -511.582
  C     -180.689       1.940    -509.408
  N     -182.086       6.371    -511.392
  C     -182.555       5.102    -511.664
  N     -183.458       4.997    -512.663
  N     -182.178       4.034    -511.013
  C     -181.266       4.293    -510.043
  C     -180.737       5.509    -509.670
  C     -181.154       6.679    -510.407
  O     -180.757       7.826    -510.235
  N     -179.867       5.374    -508.621
  C     -179.831       4.078    -508.385
  N     -180.635       3.377    -509.246
  O     -176.270       2.699    -506.595
  O     -178.572       2.720    -505.500
  H     -178.697       1.234    -511.940
  H     -176.288       3.584    -506.184
  H     -182.399       7.163    -511.931
  H     -179.226       3.597    -507.628
  H     -181.629       1.694    -509.916
  H     -178.550       1.856    -509.839
  H     -183.738       5.771    -513.247
  H     -178.542      -0.561    -509.832
  H     -183.784       4.072    -512.913
  H     -180.730      -0.773    -508.053
  H     -179.315      -0.005    -506.227
  H     -178.351      -1.010    -507.320
  P     -179.926      -1.625    -511.724
  C     -180.652      -4.073    -511.222
  O     -179.652      -3.080    -511.118
  O     -178.461      -1.028    -511.958
  O     -180.765      -1.579    -512.958
  H     -178.177      -1.182    -512.879
  H     -180.273      -4.896    -511.834
  H     -181.572      -3.690    -511.672
  H     -180.881      -4.452    -510.222
  H     -175.410      -0.584    -504.700
  H     -174.949       0.712    -505.777
  H     -176.026      -0.546    -506.335

 3  4  5  6  7  8  9  10  11  12  23  26  30  31 0
 6-311+G(2d,p)
 ****
 33  35  36  37  38 0
 6-311+G(2d,p)
 ****
 1  2  13  14  15  16  17  18  19  20  21  22  24  25 0
 3-21G
 ****
 27  28  29  32  34  39  40  41  42  43  44  45  46  47  48  49 0
 3-21G
 ****


