%nproc=1
%NoSave
%Mem=1900MB
#P OB98/GEN NMR

erre ene a

0 1
  C       11.105     116.385    -247.204
  O       10.002     116.916    -247.910
  H       10.971     116.592    -246.139
  H       12.029     116.860    -247.538
  H       11.172     115.302    -247.342
  P        9.845     116.575    -249.467
  C        8.927     118.908    -250.077
  O        8.670     117.508    -250.031
  C        7.625     119.682    -249.887
  O        6.729     119.423    -250.988
  C        6.857     119.304    -248.625
  O        7.459     119.873    -247.477
  C        5.475     119.848    -248.962
  O        5.416     121.267    -248.737
  C        5.380     119.528    -250.474
  N        4.615     118.314    -250.756
  C        3.405     118.484    -251.418
  O        2.955     119.587    -251.723
  N        2.710     117.334    -251.697
  C        3.064     116.072    -251.317
  O        2.379     115.080    -251.549
  C        4.338     115.957    -250.593
  C        5.045     117.063    -250.350
  O        9.711     115.128    -249.807
  O       11.157     117.216    -250.125
  H        6.110     121.666    -249.296
  H       11.819     116.517    -250.288
  H        1.823     117.437    -252.165
  H        4.647     114.971    -250.269
  H        5.983     117.000    -249.809
  H        4.906     120.362    -251.009
  H        4.687     119.400    -248.359
  H        6.792     118.215    -248.534
  H        7.864     120.755    -249.892
  H        9.360     119.154    -251.054
  H        9.649     119.162    -249.294
  P        6.947     119.487    -246.013
  C        6.153     121.886    -245.588
  O        6.977     120.825    -245.121
  O        7.625     118.312    -245.390
  O        5.382     119.217    -246.203
  H        5.206     118.257    -246.162
  H        6.244     122.724    -244.929
  H        5.134     121.561    -245.614
  H        6.462     122.171    -246.572

 6  7  8  9  10  11  12  13  14  15  16  26  31  32  33  34  35 0
 6-311+G(2d,p)
 ****
 36  37 0
 6-311+G(2d,p)
 ****
 1  2  3  4  5  17  18  19  20  21  22  23  24  25 0
 3-21G
 ****
 27  28  29  30  38  39  40  41  42  43  44  45 0
 3-21G
 ****


