%nproc=1
%NoSave
%Mem=1900MB
#P OB98/GEN NMR

erre ene a

0 1
  C      -41.413       0.891    -305.491
  O      -40.582       1.144    -306.611
  P      -39.492       0.027    -306.987
  C      -37.502      -1.065    -305.715
  O      -38.472      -0.021    -305.751
  C      -36.177      -0.541    -305.172
  O      -36.370       0.029    -303.863
  C      -35.113      -1.610    -305.001
  O      -34.535      -1.942    -306.247
  C      -34.153      -0.927    -304.033
  O      -33.201      -0.113    -304.739
  C      -35.101      -0.053    -303.179
  N      -35.256      -0.560    -301.826
  C      -34.306      -0.116    -300.896
  O      -33.399       0.638    -301.253
  N      -34.387      -0.573    -299.605
  C      -35.329      -1.398    -299.273
  N      -35.365      -1.814    -297.977
  C      -36.336      -1.905    -300.226
  C      -36.238      -1.454    -301.474
  O      -38.642       0.725    -308.147
  O      -40.062      -1.286    -307.410
  H      -32.553       0.180    -304.065
  H      -38.240       0.056    -308.732
  H      -37.102      -2.594    -299.897
  H      -36.938      -1.774    -302.238
  H      -34.717       0.973    -303.117
  H      -33.579      -1.652    -303.450
  H      -35.538      -2.505    -304.529
  H      -35.822       0.254    -305.841
  H      -34.654      -1.455    -297.349
  H      -37.344      -1.444    -306.729
  H      -36.071      -2.438    -297.613
  H      -37.883      -1.880    -305.093
  P      -33.352      -3.021    -306.256
  C      -30.903      -2.999    -305.499
  O      -32.069      -2.228    -305.716
  O      -33.030      -3.156    -307.821
  O      -33.630      -4.343    -305.625
  H      -32.381      -3.869    -307.967
  H      -30.070      -2.324    -305.288
  H      -30.661      -3.589    -306.387
  H      -31.045      -3.660    -304.639
  H      -42.088       1.710    -305.355
  H      -40.808       0.778    -304.616
  H      -41.971      -0.007    -305.657

 3  4  5  6  7  8  9  10  11  12  13  21  23  27  28  29  30  32 0
 6-311+G(2d,p)
 ****
 34  35 0
 6-311+G(2d,p)
 ****
 1  2  14  15  16  17  18  19  20  22  24  25  26 0
 3-21G
 ****
 31  33  36  37  38  39  40  41  42  43  44  45  46 0
 3-21G
 ****


