%nproc=1
%NoSave
%Mem=1900MB
#P OB98/GEN NMR

erre ene a

0 1
  C      532.051    -164.752     171.603
  O      530.770    -165.384     171.718
  P      530.147    -165.482     173.201
  C      528.607    -167.568     173.417
  O      528.713    -166.193     173.073
  C      527.428    -168.218     172.698
  O      526.204    -167.498     172.947
  C      527.559    -168.247     171.178
  O      528.408    -169.303     170.746
  C      526.120    -168.498     170.759
  O      525.827    -169.906     170.835
  C      525.320    -167.716     171.821
  N      521.275    -165.046     170.350
  C      521.367    -166.363     170.758
  N      520.203    -167.058     170.813
  N      522.492    -166.948     171.090
  C      523.566    -166.119     171.014
  C      523.604    -164.804     170.627
  C      522.355    -164.176     170.233
  O      522.224    -163.024     169.834
  N      524.877    -164.295     170.695
  C      525.599    -165.298     171.152
  N      524.853    -166.432     171.354
  O      529.779    -163.958     173.532
  O      531.078    -166.064     174.213
  H      526.457    -170.356     170.236
  H      529.794    -163.815     174.497
  H      520.385    -164.647     170.096
  H      526.664    -165.252     171.358
  H      524.464    -168.292     172.187
  H      525.923    -168.190     169.727
  H      519.299    -166.649     170.641
  H      527.896    -167.269     170.794
  H      520.251    -168.015     171.143
  H      527.313    -169.245     173.080
  H      528.469    -167.671     174.496
  H      529.548    -168.073     173.169
  P      529.553    -168.938     169.685
  C      529.337    -171.258     168.538
  O      530.174    -170.340     169.227
  O      530.699    -168.287     170.596
  O      529.120    -168.014     168.586
  H      531.224    -167.643     170.078
  H      528.720    -170.753     167.790
  H      528.696    -171.771     169.266
  H      529.968    -172.005     168.034
  H      532.356    -164.748     170.577
  H      532.768    -165.291     172.186
  H      531.985    -163.745     171.960

 3  4  5  6  7  8  9  10  11  12  23  26  30  31  33  0
 6-311+G(2d,p)
 ****
 35  36  37  38 0
 6-311+G(2d,p)
 ****
 1  2  13  14  15  16  17  18  19  20  21  22  24  25  27  28  29 0
 3-21G
 ****
 32  34  39  40  41  42  43  44  45  46  47  48  49 0
 3-21G
 ****


