%nproc=1
%NoSave
%Mem=1900MB
#P OB98/GEN NMR

erre ene a

0 1
  C     -111.102      16.860     989.858
  O     -110.536      15.535     989.921
  P     -109.725      14.881     988.700
  C     -107.197      14.449     988.343
  O     -108.313      14.324     989.244
  C     -105.926      13.839     988.934
  O     -105.291      14.741     989.881
  C     -106.153      12.548     989.733
  O     -106.362      11.442     988.848
  C     -104.863      12.479     990.550
  O     -103.791      11.904     989.770
  C     -104.599      13.963     990.846
  N     -104.975      14.329     992.217
  C     -104.229      13.771     993.250
  O     -103.330      12.940     992.979
  N     -104.537      14.105     994.553
  C     -105.546      14.897     994.790
  N     -105.791      15.218     996.100
  C     -106.425      15.445     993.726
  C     -106.077      15.126     992.494
  O     -109.616      15.768     987.501
  O     -110.532      13.534     988.348
  H     -103.584      12.535     989.048
  H     -110.420      13.344     987.407
  H     -107.270      16.076     993.979
  H     -106.666      15.491     991.649
  H     -103.528      14.198     990.711
  H     -104.975      11.852     991.440
  H     -107.017      12.673     990.413
  H     -105.206      13.663     988.122
  H     -105.160      14.830     996.791
  H     -107.024      15.526     988.148
  H     -106.554      15.817     996.400
  H     -107.457      13.963     987.404
  P     -107.856      11.095     988.376
  C     -108.932       9.140     987.069
  O     -107.869       9.561     987.903
  O     -108.472      12.048     987.404
  O     -108.703      11.025     989.741
  H     -109.623      11.310     989.565
  H     -108.633       8.264     986.508
  H     -109.225       9.947     986.368
  H     -109.812       8.903     987.685
  H     -111.594      17.082     990.782
  H     -111.810      16.908     989.057
  H     -110.323      17.573     989.688

 3  4  5  6  7  8  9  10  11  12  13  23  27  28  29  30  32 0
 6-311+G(2d,p)
 ****
 34  35 0
 6-311+G(2d,p)
 ****
 1  2  14  15  16  17  18  19  20  21  22  24  25  26 0
 3-21G
 ****
 31  33  36  37  38  39  40  41  42  43  44  45  46 0
 3-21G
 ****


