%nproc=1
%NoSave
%Mem=1900MB
#P OB98/GEN NMR

erre ene a

0 1
  C       76.384     -50.093     154.830
  O       77.608     -50.500     154.257
  H       75.584     -50.267     154.105
  H       76.412     -49.028     155.068
  H       76.166     -50.670     155.733
  P       78.923     -50.508     155.172
  C       80.102     -48.626     153.861
  O       79.547     -49.032     155.107
  C       81.033     -47.437     154.071
  O       80.265     -46.261     154.415
  C       82.021     -47.624     155.216
  O       83.076     -48.496     154.857
  C       82.434     -46.186     155.475
  O       83.444     -45.761     154.552
  C       81.114     -45.421     155.228
  N       80.449     -45.054     156.480
  C       80.567     -43.726     156.870
  O       81.176     -42.877     156.222
  N       80.005     -43.409     158.079
  C       79.480     -44.302     158.969
  O       79.217     -44.015     160.133
  C       79.326     -45.678     158.476
  C       79.822     -45.990     157.277
  O       79.888     -51.616     154.909
  O       78.341     -50.583     156.663
  H       78.425     -51.498     156.994
  H       83.717     -44.867     154.848
  H       80.124     -42.455     158.390
  H       78.847     -46.400     159.126
  H       79.752     -47.009     156.905
  H       81.302     -44.507     154.652
  H       82.828     -46.057     156.485
  H       81.497     -48.008     156.098
  H       81.560     -47.238     153.130
  H       79.286     -48.336     153.191
  H       80.641     -49.471     153.419
  P       84.092     -49.036     155.968
  C       86.043     -47.986     154.669
  O       85.408     -48.122     155.937
  O       84.351     -50.505     155.936
  O       83.407     -48.615     157.356
  H       83.379     -49.396     157.943
  H       86.904     -47.359     154.767
  H       85.359     -47.547     153.973
  H       86.342     -48.950     154.315

 6  7  8  9  10  11  12  13  14  15  16  27  31  32  33  34  35 0
 6-311+G(2d,p)
 ****
 36  37 0
 6-311+G(2d,p)
 ****
 1  2  3  4  5  17  18  19  20  21  22  23  24  25 0
 3-21G
 ****
 26  28  29  30  38  39  40  41  42  43  44  45 0
 3-21G
 ****


