%nproc=1
%NoSave
%Mem=1900MB
#P OB98/GEN NMR

erre ene a

0 1
  C      101.128      95.132     -15.694
  O      101.069      95.982     -16.827
  P      100.795      97.541     -16.564
  C       98.244      97.429     -17.063
  O       99.266      97.644     -16.094
  C       96.869      97.472     -16.404
  O       96.806      96.515     -15.332
  C       96.526      98.812     -15.777
  O       96.141      99.743     -16.769
  C       95.401      98.421     -14.826
  O       94.131      98.424     -15.498
  C       95.799      96.985     -14.408
  N       96.264      96.913     -13.032
  C       95.301      96.549     -12.082
  O       94.141      96.332     -12.432
  N       95.673      96.481     -10.763
  C       96.893      96.755     -10.424
  N       97.207      96.666      -9.102
  C       97.932      97.162     -11.391
  C       97.551      97.226     -12.666
  O      100.776      98.160     -18.038
  O      101.794      98.210     -15.679
  H       93.471      98.183     -14.817
  H      101.027      99.103     -18.022
  H       98.935      97.382     -11.055
  H       98.249      97.518     -13.441
  H       94.943      96.307     -14.513
  H       95.318      99.115     -13.985
  H       97.378      99.198     -15.203
  H       96.119      97.195     -17.156
  H       96.472      96.391      -8.463
  H       98.385      96.447     -17.524
  H       98.134      96.838      -8.740
  H       98.328      98.195     -17.840
  P       96.866     101.170     -16.773
  C       94.647     102.107     -15.890
  O       96.049     102.049     -15.710
  O       96.378     101.793     -18.167
  O       98.351     101.181     -16.641
  H       96.838     102.636     -18.333
  H       94.202     102.598     -15.022
  H       94.230     101.100     -15.979
  H       94.410     102.689     -16.785
  H      101.315      94.127     -16.011
  H      100.197      95.173     -15.169
  H      101.917      95.454     -15.047

 3  4  5  6  7  8  9  10  11  12  13  21  23  27  28  29  30  32 0
 6-311+G(2d,p)
 ****
 34  35 0
 6-311+G(2d,p)
 ****
 1  2  14  15  16  17  18  19  20  22  24  25  26 0
 3-21G
 ****
 31  33  36  37  38  39  40  41  42  43  44  45  46 0
 3-21G
 ****


