%nproc=1
%NoSave
%Mem=1900MB
#P OB98/GEN NMR

erre ene a

0 1
  C      233.058     210.626    -469.900
  O      234.192     209.812    -470.213
  P      235.232     209.531    -469.024
  C      236.899     211.477    -469.477
  O      235.913     210.931    -468.604
  C      237.923     212.334    -468.722
  O      237.312     213.551    -468.211
  C      238.569     211.615    -467.534
  O      239.911     212.075    -467.421
  C      237.770     212.141    -466.343
  O      238.489     211.977    -465.127
  C      237.548     213.594    -466.782
  N      236.430     214.238    -466.076
  C      236.712     214.820    -464.841
  O      237.838     214.716    -464.353
  N      235.711     215.467    -464.156
  C      234.506     215.486    -464.654
  N      233.557     216.144    -463.937
  C      234.151     214.834    -465.929
  C      235.145     214.241    -466.582
  O      236.413     208.728    -469.746
  O      234.658     208.747    -467.895
  H      238.426     211.029    -464.857
  H      236.638     207.928    -469.232
  H      233.121     214.852    -466.292
  H      234.975     213.735    -467.530
  H      238.440     214.200    -466.607
  H      236.807     211.606    -466.259
  H      238.546     210.523    -467.623
  H      238.705     212.635    -469.431
  H      233.849     216.583    -463.074
  H      236.411     212.092    -470.242
  H      232.585     216.214    -464.215
  H      237.388     210.657    -470.021
  P      241.054     211.336    -468.278
  C      241.487     209.836    -466.231
  O      241.170     209.876    -467.617
  O      242.383     212.048    -467.717
  O      240.981     211.399    -469.767
  H      243.160     211.722    -468.218
  H      241.414     208.795    -465.886
  H      240.768     210.441    -465.659
  H      242.505     210.192    -466.068
  H      232.447     210.737    -470.771
  H      233.390     211.589    -469.572
  H      232.489     210.161    -469.122

 3  4  5  6  7  8  9  10  11  12  13  21  23  27  28  29  30  32 0
 6-311+G(2d,p)
 ****
 34  35 0
 6-311+G(2d,p)
 ****
 1  2  14  15  16  17  18  19  20  22  24  25  26 0
 3-21G
 ****
 31  33  36  37  38  39  40  41  42  43  44  45  46 0
 3-21G
 ****


