%nproc=1
%NoSave
%Mem=1900MB
#P OB98/GEN NMR

erre ene a

0 1
  C      -63.567     -19.849    -117.090
  O      -63.616     -20.526    -115.851
  H      -62.520     -19.676    -117.350
  H      -64.072     -18.883    -117.017
  H      -64.026     -20.453    -117.877
  P      -65.051     -20.899    -115.239
  C      -64.885     -18.720    -113.847
  O      -65.653     -19.486    -114.762
  C      -64.931     -17.243    -114.227
  O      -64.425     -17.029    -115.562
  C      -66.326     -16.628    -114.244
  O      -66.869     -16.404    -112.955
  C      -66.032     -15.334    -114.981
  O      -65.374     -14.412    -114.095
  C      -65.073     -15.835    -116.086
  N      -65.763     -16.134    -117.339
  C      -66.134     -15.037    -118.126
  O      -65.890     -13.889    -117.760
  N      -66.807     -15.265    -119.303
  C      -67.106     -16.478    -119.650
  N      -67.779     -16.645    -120.822
  C      -66.753     -17.660    -118.841
  C      -66.088     -17.419    -117.713
  O      -65.063     -21.982    -114.210
  O      -65.960     -21.221    -116.515
  H      -65.293     -13.568    -114.575
  H      -66.860     -21.469    -116.191
  H      -67.050     -18.648    -119.160
  H      -65.800     -18.237    -117.061
  H      -64.285     -15.098    -116.282
  H      -66.929     -14.838    -115.356
  H      -67.010     -17.229    -114.856
  H      -64.263     -16.707    -113.540
  H      -68.008     -15.816    -121.355
  H      -63.858     -19.098    -113.863
  H      -68.118     -17.546    -121.131
  H      -65.288     -18.829    -112.836
  P      -68.359     -16.945    -112.688
  C      -68.974     -14.516    -111.956
  O      -69.315     -15.661    -112.720
  O      -68.319     -17.367    -111.148
  O      -68.798     -18.063    -113.581
  H      -68.185     -18.330    -111.056
  H      -69.718     -13.760    -112.095
  H      -68.023     -14.144    -112.276
  H      -68.923     -14.780    -110.920

 6  7  8  9  10  11  12  13  14  15  16  26  30  31  32  33  35 0
 6-311+G(2d,p)
 ****
 37  38 0
 6-311+G(2d,p)
 ****
 1  2  3  4  5  17  18  19  20  21  22  23  24  25 0
 3-21G
 ****
 27  28  29  34  36  39  40  41  42  43  44  45  46 0
 3-21G
 ****


