%nproc=1
%NoSave
%Mem=1900MB
#P OB98/GEN NMR

erre ene a

0 1
  C       53.847     110.556      15.313
  O       55.218     110.410      14.996
  H       53.598     111.616      15.402
  H       53.252     110.118      14.507
  H       53.611     110.038      16.247
  P       56.272     110.830      16.132
  C       57.946     108.961      15.446
  O       57.710     110.355      15.591
  C       59.191     108.716      14.591
  O       58.824     108.821      13.189
  C       60.319     109.720      14.853
  O       61.573     109.036      14.793
  C       60.205     110.692      13.690
  O       61.438     111.347      13.411
  C       59.716     109.771      12.572
  N       60.274     112.001       8.014
  C       61.113     111.256       8.761
  N       60.885     110.692       9.968
  C       59.619     110.923      10.365
  C       58.650     111.666       9.711
  C       59.021     112.231       8.480
  N       58.184     113.024       7.728
  N       57.485     111.704      10.457
  C       57.750     110.997      11.538
  N       59.029     110.511      11.529
  O       55.946     109.782      17.303
  O       56.191     112.243      16.604
  H       62.158     110.684      13.472
  H       55.157     110.082      17.795
  H       62.105     111.095       8.341
  H       57.063     110.818      12.354
  H       60.537     109.220      12.096
  H       59.455     111.458      13.920
  H       60.224     110.223      15.818
  H       59.530     107.687      14.753
  H       57.074     108.502      14.964
  H       58.550     113.433       6.884
  H       57.269     113.254       8.087
  H       58.084     108.513      16.437
  P       62.242     108.628      16.196
  C       62.346     106.112      15.578
  O       63.066     107.264      15.994
  O       60.989     108.188      17.092
  O       63.007     109.742      16.839
  H       61.023     108.637      17.955
  H       63.019     105.285      15.486
  H       61.883     106.303      14.632
  H       61.594     105.881      16.303

 6  7  8  9  10  11  12  13  14  15  25  28  32  33  34  35 0
 6-311+G(2d,p)
 ****
 36  39  40 0
 6-311+G(2d,p)
 ****
 1  2  3  4  5  16  17  18  19  20  21  22  23  24 0
 3-21G
 ****
 26  27  29  30  31  37  38  41  42  43  44  45  46  47 0
 3-21G
 ****
 48 0
 3-21G
 ****


