%nproc=1
%NoSave
%Mem=1900MB
#P OB98/GEN NMR

erre ene a

0 1
  C      520.225     363.977    -414.386
  O      519.815     364.053    -413.026
  P      519.314     365.484    -412.492
  C      520.471     365.968    -410.227
  O      519.326     365.454    -410.875
  C      520.447     365.643    -408.720
  O      519.101     365.794    -408.185
  C      520.914     364.227    -408.387
  O      521.574     364.271    -407.118
  C      519.609     363.464    -408.226
  O      519.780     362.255    -407.490
  C      518.750     364.542    -407.553
  N      514.711     362.318    -405.347
  C      516.016     362.409    -404.978
  N      517.032     362.996    -405.627
  C      516.593     363.576    -406.771
  C      515.299     363.559    -407.279
  C      514.331     362.894    -406.518
  N      513.018     362.770    -406.911
  N      515.252     364.210    -408.498
  C      516.497     364.625    -408.708
  N      517.325     364.283    -407.685
  O      517.758     365.493    -412.863
  O      520.036     366.641    -413.109
  H      518.893     361.938    -407.230
  H      517.597     366.110    -413.596
  H      516.268     361.941    -404.033
  H      516.836     365.143    -409.597
  H      518.963     364.630    -406.471
  H      519.205     363.219    -409.211
  H      521.558     363.766    -409.142
  H      521.085     366.373    -408.196
  H      520.528     367.058    -410.352
  H      512.395     362.238    -406.311
  H      512.737     363.144    -407.794
  H      521.366     365.564    -410.696
  P      523.174     364.418    -407.142
  C      523.790     363.199    -404.936
  O      523.652     364.437    -405.618
  O      523.395     365.925    -407.641
  O      523.854     363.427    -408.026
  H      524.269     366.009    -408.071
  H      524.697     363.253    -404.316
  H      523.876     362.349    -405.624
  H      522.929     363.050    -404.284
  H      520.532     362.977    -414.611
  H      521.043     364.647    -414.550
  H      519.408     364.250    -415.021

 3  4  5  6  7  8  9  10  11  12  22  25  29  30  31  32 0
 6-311+G(2d,p)
 ****
 33  36  37 0
 6-311+G(2d,p)
 ****
 1  2  13  14  15  16  17  18  19  20  21  23  24  26 0
 3-21G
 ****
 27  28  34  35  38  39  40  41  42  43  44  45  46  47  48 0
 3-21G
 ****


