%nproc=1
%NoSave
%Mem=1900MB
#P OB98/GEN NMR

erre ene a

0 1
  C      583.144      55.672     617.032
  O      584.317      56.221     616.465
  H      583.035      56.055     618.049
  H      583.223      54.583     617.076
  H      582.262      55.962     616.451
  P      584.662      55.901     614.933
  C      583.493      57.975     613.963
  O      583.494      56.557     614.049
  C      582.462      58.451     612.937
  O      582.861      57.977     611.626
  C      581.044      57.945     613.213
  O      580.123      58.978     612.877
  C      580.892      56.786     612.243
  O      579.526      56.552     611.891
  C      581.750      57.248     611.068
  N      580.573      54.118     607.279
  C      579.893      55.215     607.776
  N      578.710      55.514     607.194
  N      580.335      55.960     608.758
  C      581.537      55.554     609.235
  C      582.306      54.487     608.831
  C      581.801      53.672     607.751
  O      582.351      52.680     607.282
  N      583.451      54.390     609.580
  C      583.376      55.392     610.435
  N      582.228      56.123     610.277
  O      584.938      54.464     614.626
  O      585.926      56.827     614.618
  H      579.086      56.174     612.680
  H      586.753      56.308     614.656
  H      580.182      53.580     606.527
  H      584.112      55.630     611.192
  H      581.206      57.911     610.382
  H      581.294      55.870     612.689
  H      578.315      54.999     606.423
  H      580.894      57.629     614.252
  H      578.206      56.327     607.527
  H      582.490      59.547     612.906
  H      584.497      58.301     613.661
  H      583.270      58.398     614.947
  P      578.913      59.291     613.889
  C      579.434      61.800     613.612
  O      579.165      60.743     614.530
  O      578.589      58.212     614.864
  O      577.683      59.563     612.894
  H      576.856      59.297     613.341
  H      579.584      62.712     614.152
  H      578.605      61.913     612.945
  H      580.315      61.569     613.050

 6  7  8  9  10  11  12  13  14  15  26  29  33  34 0
 6-311+G(2d,p)
 ****
 36  38  39  40  41 0
 6-311+G(2d,p)
 ****
 1  2  3  4  5  16  17  18  19  20  21  22  23  24  25 0
 3-21G
 ****
 27  28  30  31  32  35  37  42  43  44  45  46  47 0
 3-21G
 ****
 48  49 0
 3-21G
 ****


