%nproc=1
%NoSave
%Mem=1900MB
#P OB98/GEN NMR

erre ene a

0 1
  C      502.854      30.262     328.882
  O      502.933      28.878     328.519
  P      502.083      28.387     327.244
  C      504.014      28.162     325.498
  O      503.042      27.511     326.300
  C      505.363      27.458     325.601
  O      505.971      27.675     326.879
  C      505.237      25.935     325.466
  O      505.078      25.555     324.121
  C      506.553      25.466     326.088
  O      507.595      25.351     325.119
  C      506.882      26.575     327.126
  N      506.789      26.113     328.509
  C      507.972      25.575     329.044
  O      508.983      25.495     328.344
  N      507.943      25.124     330.335
  C      506.832      25.166     331.032
  N      506.880      24.697     332.303
  C      505.572      25.707     330.490
  C      505.618      26.159     329.224
  O      501.882      29.743     326.408
  O      500.774      27.746     327.598
  H      507.752      26.249     324.769
  H      501.021      29.722     325.949
  H      504.682      25.728     331.090
  H      504.734      26.571     328.762
  H      507.885      26.961     326.949
  H      506.437      24.476     326.551
  H      504.396      25.576     326.079
  H      506.038      27.851     324.814
  H      507.775      24.331     332.642
  H      504.119      29.217     325.817
  H      506.086      24.684     332.913
  H      503.658      28.204     324.454
  P      503.728      24.832     323.700
  C      502.808      26.995     322.659
  O      503.180      25.658     322.415
  O      502.716      25.297     324.839
  O      503.757      23.331     323.567
  H      501.857      24.857     324.765
  H      502.658      27.497     321.688
  H      503.582      27.525     323.196
  H      501.869      27.028     323.210
  H      503.466      30.441     329.741
  H      501.839      30.514     329.108
  H      503.198      30.865     328.067

 3  4  5  6  7  8  9  10  11  12  13  21  23  27  28  29  30  32 0
 6-311+G(2d,p)
 ****
 34  35 0
 6-311+G(2d,p)
 ****
 1  2  14  15  16  17  18  19  20  22  24  25  26 0
 3-21G
 ****
 31  33  36  37  38  39  40  41  42  43  44  45  46 0
 3-21G
 ****


