%nproc=1
%NoSave
%Mem=1900MB
#P OB98/GEN NMR

erre ene a

0 1
  C     -391.048     560.872    -415.054
  O     -390.355     560.436    -413.902
  H     -391.794     561.606    -414.754
  H     -391.552     560.035    -415.542
  H     -390.355     561.351    -415.757
  P     -389.218     559.317    -414.070
  C     -388.377     559.376    -411.630
  O     -389.057     558.627    -412.625
  C     -388.317     558.584    -410.321
  O     -389.646     558.287    -409.857
  C     -387.594     557.242    -410.438
  O     -386.188     557.426    -410.367
  C     -388.146     556.520    -409.217
  O     -387.502     557.017    -408.027
  C     -389.626     556.964    -409.245
  N     -392.420     552.728    -409.083
  C     -391.526     553.230    -408.162
  N     -391.323     552.489    -407.057
  N     -390.879     554.361    -408.309
  C     -391.122     554.964    -409.502
  C     -391.973     554.553    -410.502
  C     -392.735     553.341    -410.297
  O     -393.561     552.869    -411.069
  N     -391.891     555.374    -411.602
  C     -391.032     556.319    -411.239
  N     -390.526     556.103    -409.978
  O     -387.925     559.775    -414.676
  O     -389.921     558.174    -414.944
  H     -387.466     557.996    -408.110
  H     -389.764     558.309    -415.894
  H     -392.880     551.847    -408.921
  H     -390.745     557.156    -411.846
  H     -390.037     557.070    -408.229
  H     -387.984     555.444    -409.258
  H     -391.681     551.546    -406.948
  H     -387.892     556.694    -411.340
  H     -390.627     552.818    -406.386
  H     -387.841     559.225    -409.564
  H     -388.933     560.312    -411.478
  H     -387.361     559.620    -411.950
  P     -385.194     556.775    -411.452
  C     -383.229     558.354    -410.890
  O     -383.717     557.023    -410.883
  O     -385.418     557.230    -412.851
  O     -385.368     555.198    -411.247
  H     -386.133     554.821    -411.747
  H     -382.239     558.373    -410.485
  H     -383.869     558.972    -410.295
  H     -383.211     558.722    -411.895

 6  7  8  9  10  11  12  13  14  15  26  29  33  34 0
 6-311+G(2d,p)
 ****
 36  38  39  40  41 0
 6-311+G(2d,p)
 ****
 1  2  3  4  5  16  17  18  19  20  21  22  23  24  25 0
 3-21G
 ****
 27  28  30  31  32  35  37  42  43  44  45  46  47 0
 3-21G
 ****
 48  49 0
 3-21G
 ****


