%nproc=1
%NoSave
%Mem=1900MB
#P OB98/GEN NMR

erre ene a

0 1
  C     -884.639     143.154      32.240
  O     -883.219     143.319      32.283
  P     -882.452     143.507      30.887
  C     -880.929     141.474      31.551
  O     -881.021     142.823      31.082
  C     -879.473     141.108      31.830
  O     -878.686     141.163      30.591
  C     -878.762     142.057      32.798
  O     -879.186     141.822      34.124
  C     -877.307     141.709      32.511
  O     -876.924     140.523      33.204
  C     -877.318     141.468      30.986
  N     -876.784     142.583      30.212
  C     -875.401     142.767      30.319
  O     -874.678     142.083      31.034
  N     -874.885     143.810      29.595
  C     -875.611     144.671      28.804
  O     -875.093     145.574      28.159
  C     -877.071     144.438      28.770
  C     -877.584     143.428      29.466
  O     -882.151     145.079      30.914
  O     -883.245     143.030      29.718
  H     -881.961     145.412      31.795
  H     -875.987     140.336      32.942
  H     -873.899     143.964      29.642
  H     -877.659     145.118      28.180
  H     -878.641     143.246      29.455
  H     -876.739     140.566      30.748
  H     -876.620     142.506      32.834
  H     -878.966     143.095      32.517
  H     -879.443     140.089      32.203
  H     -881.338     140.801      30.796
  H     -881.530     141.376      32.453
  P     -880.228     142.867      34.760
  C     -878.466     144.712      35.334
  O     -879.398     143.773      35.802
  O     -881.114     141.904      35.679
  O     -881.006     143.628      33.737
  H     -880.576     141.274      36.200
  H     -878.282     145.434      36.132
  H     -878.844     145.253      34.458
  H     -877.518     144.221      35.091
  H     -885.015     143.040      33.235
  H     -884.880     142.284      31.666
  H     -885.085     144.015      31.787

 3  4  5  6  7  8  9  10  11  12  13  24  28  29  30  31  32 0
 6-311+G(2d,p)
 ****
 33  34 0
 6-311+G(2d,p)
 ****
 1  2  14  15  16  17  18  19  20  21  22  23  25  26  27 0
 3-21G
 ****
 35  36  37  38  39  40  41  42  43  44  45 0
 3-21G
 ****


