%nproc=1
%NoSave
%Mem=1900MB
#P OB98/GEN NMR

erre ene a

0 1
  C      188.471    -343.901    -774.977
  O      188.525    -344.178    -776.359
  P      188.349    -343.007    -777.440
  C      186.205    -344.010    -778.484
  O      187.578    -343.681    -778.684
  C      185.599    -344.612    -779.753
  O      185.436    -343.603    -780.763
  C      186.458    -345.707    -780.383
  O      186.334    -346.918    -779.670
  C      185.885    -345.743    -781.797
  O      184.690    -346.538    -781.859
  C      185.558    -344.243    -782.050
  N      186.559    -343.599    -782.894
  C      186.083    -343.008    -784.076
  O      184.885    -343.084    -784.364
  N      186.980    -342.386    -784.908
  C      188.242    -342.388    -784.602
  N      189.085    -341.764    -785.471
  C      188.791    -343.018    -783.384
  C      187.898    -343.605    -782.584
  O      189.591    -342.255    -777.787
  O      187.208    -342.081    -776.786
  H      184.981    -347.470    -781.714
  H      187.567    -341.550    -776.029
  H      189.847    -342.998    -783.180
  H      188.211    -344.099    -781.659
  H      184.572    -344.145    -782.542
  H      186.605    -346.160    -782.516
  H      187.506    -345.380    -780.422
  H      184.608    -345.010    -779.495
  H      188.678    -341.369    -786.317
  H      185.673    -343.088    -778.238
  H      190.091    -341.734    -785.351
  H      186.119    -344.693    -777.635
  P      187.647    -347.670    -779.139
  C      186.791    -350.000    -779.816
  O      187.232    -349.162    -778.751
  O      188.425    -346.933    -778.101
  O      188.522    -347.876    -780.468
  H      189.446    -347.649    -780.269
  H      186.859    -351.041    -779.488
  H      187.415    -349.849    -780.701
  H      185.748    -349.762    -780.050
  H      188.609    -344.808    -774.426
  H      187.518    -343.478    -774.735
  H      189.244    -343.207    -774.722

 3  4  5  6  7  8  9  10  11  12  13  23  27  28  29  30  32 0
 6-311+G(2d,p)
 ****
 34  35 0
 6-311+G(2d,p)
 ****
 1  2  14  15  16  17  18  19  20  21  22  24  25  26 0
 3-21G
 ****
 31  33  36  37  38  39  40  41  42  43  44  45  46 0
 3-21G
 ****


