%nproc=1
%NoSave
%Mem=1900MB
#P OB98/GEN NMR

erre ene a

0 1
  C     -201.781     582.620     418.339
  O     -202.282     582.578     419.677
  P     -202.434     581.121     420.330
  C     -202.636     580.528     422.852
  O     -203.134     581.289     421.767
  C     -203.357     580.886     424.160
  O     -203.175     582.285     424.512
  C     -204.862     580.666     424.096
  O     -205.150     579.289     424.287
  C     -205.358     581.548     425.241
  O     -205.262     580.861     426.505
  C     -204.376     582.734     425.193
  N     -205.876     587.533     425.885
  C     -205.547     586.559     426.822
  N     -205.606     586.930     428.118
  N     -205.198     585.343     426.501
  C     -205.182     585.117     425.160
  C     -205.452     586.005     424.149
  C     -205.848     587.352     424.503
  O     -206.125     588.250     423.722
  N     -205.274     585.420     422.910
  C     -205.012     584.153     423.191
  N     -204.879     583.936     424.545
  O     -200.933     580.703     420.679
  O     -203.080     580.128     419.423
  H     -204.361     580.511     426.607
  H     -200.638     579.988     420.083
  H     -206.153     588.449     426.183
  H     -204.881     583.378     422.466
  H     -204.064     583.037     426.200
  H     -206.405     581.818     425.108
  H     -205.872     587.863     428.436
  H     -205.254     581.026     423.136
  H     -205.365     586.241     428.822
  H     -202.915     580.281     424.961
  H     -201.558     580.693     422.962
  H     -202.766     579.458     422.624
  P     -205.896     578.511     423.097
  C     -206.306     576.012     422.508
  O     -205.919     576.951     423.486
  O     -204.834     578.591     421.893
  O     -207.212     579.092     422.697
  H     -205.301     578.815     421.064
  H     -205.798     575.063     422.699
  H     -206.050     576.350     421.490
  H     -207.392     575.848     422.572
  H     -201.723     583.637     418.012
  H     -202.439     582.075     417.695
  H     -200.806     582.180     418.309

 3  4  5  6  7  8  9  10  11  12  23  26  30  31 0
 6-311+G(2d,p)
 ****
 33  35  36  37  38 0
 6-311+G(2d,p)
 ****
 1  2  13  14  15  16  17  18  19  20  21  22  24  25 0
 3-21G
 ****
 27  28  29  32  34  39  40  41  42  43  44  45  46  47  48  49 0
 3-21G
 ****


