%nproc=1
%NoSave
%Mem=1900MB
#P OB98/GEN NMR

erre ene a

0 1
  C     -149.958     134.224       7.846
  O     -148.869     134.725       7.097
  H     -149.569     133.588       8.645
  H     -150.618     133.629       7.208
  H     -150.516     135.051       8.292
  P     -149.229     135.660       5.845
  C     -150.443     135.255       3.608
  O     -149.910     134.661       4.785
  C     -151.035     134.184       2.691
  O     -149.947     133.475       2.047
  C     -151.888     133.152       3.432
  O     -153.008     132.799       2.622
  C     -150.962     131.956       3.570
  O     -151.674     130.728       3.696
  C     -150.119     132.070       2.301
  N     -147.665     127.609       1.985
  C     -148.916     127.978       1.641
  N     -149.486     129.198       1.744
  C     -148.605     130.095       2.220
  C     -147.299     129.867       2.617
  C     -146.829     128.548       2.490
  N     -145.564     128.158       2.862
  N     -146.729     131.031       3.093
  C     -147.670     131.949       2.972
  N     -148.827     131.425       2.464
  O     -148.110     136.490       5.312
  O     -150.485     136.479       6.402
  H     -151.069     129.995       3.459
  H     -151.108     135.898       6.878
  H     -149.547     127.191       1.235
  H     -147.568     132.993       3.249
  H     -150.604     131.613       1.430
  H     -150.336     132.077       4.463
  H     -152.233     133.513       4.402
  H     -151.607     134.677       1.897
  H     -149.659     135.801       3.073
  H     -145.303     127.194       2.724
  H     -144.921     128.848       3.224
  H     -151.218     135.966       3.910
  P     -154.426     133.473       2.944
  C     -156.552     132.887       4.285
  O     -155.189     132.566       4.027
  O     -155.238     133.881       1.762
  O     -154.008     134.755       3.813
  H     -154.597     135.499       3.583
  H     -156.944     132.215       5.019
  H     -157.117     132.796       3.381
  H     -156.619     133.891       4.648

 6  7  8  9  10  11  12  13  14  15  25  28  32  33  34  35 0
 6-311+G(2d,p)
 ****
 36  39  40 0
 6-311+G(2d,p)
 ****
 1  2  3  4  5  16  17  18  19  20  21  22  23  24 0
 3-21G
 ****
 26  27  29  30  31  37  38  41  42  43  44  45  46  47 0
 3-21G
 ****
 48 0
 3-21G
 ****


