%nproc=1
%NoSave
%Mem=1900MB
#P OB98/GEN NMR

erre ene a

0 1
  C       38.690     226.523      46.118
  O       39.979     227.096      46.037
  H       38.100     227.027      46.888
  H       38.187     226.645      45.154
  H       38.765     225.455      46.345
  P       40.874     227.053      47.368
  C       40.513     229.595      47.794
  O       41.438     228.547      47.543
  C       41.266     230.915      47.918
  O       42.161     230.871      49.054
  C       42.144     231.238      46.713
  O       41.412     231.818      45.647
  C       43.112     232.234      47.326
  O       42.470     233.513      47.465
  C       43.366     231.609      48.707
  N       48.365     231.186      49.723
  C       47.502     232.217      49.852
  N       46.183     232.243      49.580
  C       45.763     231.046      49.140
  C       46.523     229.900      48.965
  C       47.891     230.000      49.273
  N       48.781     228.960      49.112
  N       45.744     228.871      48.475
  C       44.534     229.383      48.377
  N       44.502     230.704      48.737
  O       42.173     226.228      46.928
  O       40.211     226.497      48.583
  H       43.160     234.152      47.727
  H       42.681     225.949      47.713
  H       47.932     233.146      50.219
  H       43.655     228.844      48.043
  H       43.530     232.363      49.486
  H       44.005     232.388      46.713
  H       42.703     230.356      46.376
  H       40.538     231.714      48.099
  H       39.980     229.386      48.729
  H       49.760     229.172      49.217
  H       48.468     228.124      48.641
  H       39.791     229.650      46.973
  P       41.260     230.961      44.296
  C       42.054     232.859      42.712
  O       40.985     232.015      43.119
  O       39.846     230.241      44.488
  O       42.367     229.986      44.053
  H       39.840     229.367      44.054
  H       41.721     233.502      41.925
  H       42.868     232.260      42.362
  H       42.378     233.450      43.543

 6  7  8  9  10  11  12  13  14  15  25  28  32  33  34  35 0
 6-311+G(2d,p)
 ****
 36  39  40 0
 6-311+G(2d,p)
 ****
 1  2  3  4  5  16  17  18  19  20  21  22  23  24 0
 3-21G
 ****
 26  27  29  30  31  37  38  41  42  43  44  45  46  47 0
 3-21G
 ****
 48 0
 3-21G
 ****


