%nproc=1
%NoSave
%Mem=1900MB
#P OB98/GEN NMR

erre ene a

0 1
  C      170.382     307.587     277.378
  O      169.977     306.339     277.909
  H      171.216     307.417     276.692
  H      170.709     308.263     278.173
  H      169.557     308.041     276.815
  P      168.938     306.344     279.136
  C      167.142     304.791     278.112
  O      167.489     306.129     278.469
  C      166.191     304.773     276.911
  O      166.847     305.316     275.743
  C      165.748     303.374     276.496
  O      164.883     302.750     277.424
  C      165.285     303.590     275.060
  O      163.930     304.020     274.959
  C      166.230     304.720     274.584
  N      167.221     304.237     273.629
  C      166.993     304.571     272.298
  O      166.010     305.219     271.921
  N      167.912     304.110     271.395
  C      168.991     303.314     271.688
  O      169.755     302.898     270.827
  C      169.161     302.971     273.111
  C      168.289     303.440     274.003
  O      169.012     307.528     280.052
  O      169.212     304.945     279.867
  H      163.400     303.430     275.535
  H      168.830     304.940     280.779
  H      167.771     304.351     270.429
  H      170.004     302.342     273.378
  H      168.393     303.200     275.058
  H      165.652     305.517     274.098
  H      165.373     302.671     274.472
  H      166.639     302.741     276.442
  H      165.329     305.412     277.140
  H      166.641     304.331     278.973
  H      168.054     304.222     277.886
  P      165.365     301.611     278.437
  C      164.183     301.969     280.726
  O      165.330     302.219     279.926
  O      166.550     300.791     278.020
  O      164.076     300.634     278.445
  H      164.404     299.720     278.552
  H      164.307     302.434     281.682
  H      164.062     300.914     280.856
  H      163.317     302.371     280.243

 6  7  8  9  10  11  12  13  14  15  16  26  31  32  33  34  35 0
 6-311+G(2d,p)
 ****
 36  37 0
 6-311+G(2d,p)
 ****
 1  2  3  4  5  17  18  19  20  21  22  23  24  25 0
 3-21G
 ****
 27  28  29  30  38  39  40  41  42  43  44  45 0
 3-21G
 ****


