%nproc=1
%NoSave
%Mem=1900MB
#P OB98/GEN NMR

erre ene a

0 1
  C      440.246     255.329     426.813
  O      441.086     255.153     427.948
  P      442.311     254.119     427.811
  C      443.844     255.841     426.610
  O      443.143     254.607     426.528
  C      445.319     255.649     426.262
  O      445.948     254.787     427.230
  C      445.568     255.000     424.908
  O      445.494     255.933     423.843
  C      446.995     254.512     425.088
  O      447.913     255.604     424.906
  C      446.996     254.047     426.549
  N      449.130     249.575     427.809
  C      449.651     250.815     427.684
  N      449.016     251.954     427.332
  C      447.723     251.718     427.059
  C      447.061     250.499     427.109
  C      447.819     249.387     427.519
  N      447.285     248.129     427.671
  N      445.740     250.651     426.763
  C      445.597     251.938     426.516
  N      446.763     252.624     426.694
  O      441.599     252.781     427.303
  O      443.095     253.905     429.059
  H      447.618     256.325     425.490
  H      442.146     252.004     427.528
  H      450.708     250.905     427.905
  H      444.669     252.413     426.219
  H      447.937     254.285     427.057
  H      447.272     253.737     424.361
  H      444.900     254.147     424.752
  H      445.810     256.631     426.316
  H      443.767     256.230     427.628
  H      447.842     247.437     428.138
  H      446.276     248.038     427.647
  H      443.383     256.560     425.928
  P      445.255     255.334     422.369
  C      443.074     256.737     422.154
  O      443.675     255.447     422.122
  O      445.501     253.768     422.569
  O      446.139     255.925     421.321
  H      445.779     253.361     421.729
  H      442.095     256.670     421.670
  H      443.681     257.466     421.631
  H      442.929     257.046     423.193
  H      439.479     256.039     427.043
  H      439.798     254.393     426.552
  H      440.829     255.688     425.990

 3  4  5  6  7  8  9  10  11  12  22  25  29  30  31  32 0
 6-311+G(2d,p)
 ****
 33  36  37 0
 6-311+G(2d,p)
 ****
 1  2  13  14  15  16  17  18  19  20  21  23  24  26 0
 3-21G
 ****
 27  28  34  35  38  39  40  41  42  43  44  45  46  47  48 0
 3-21G
 ****


