%nproc=1
%NoSave
%Mem=1900MB
#P OB98/GEN NMR

erre ene a

0 1
  C      268.171     -85.696    -171.298
  O      268.589     -84.629    -170.473
  H      268.867     -85.784    -172.136
  H      267.167     -85.516    -171.693
  H      268.183     -86.634    -170.734
  P      267.589     -84.132    -169.316
  C      265.221     -83.103    -169.349
  O      266.433     -83.310    -170.073
  C      264.402     -81.966    -169.967
  O      265.065     -80.702    -169.749
  C      264.241     -82.075    -171.475
  O      263.414     -83.141    -171.891
  C      263.885     -80.651    -171.871
  O      262.493     -80.362    -171.771
  C      264.668     -79.823    -170.821
  N      265.809     -79.131    -171.409
  C      265.596     -77.805    -171.765
  O      264.516     -77.228    -171.627
  N      266.661     -77.160    -172.332
  C      267.870     -77.720    -172.618
  O      268.775     -77.099    -173.168
  C      268.032     -79.132    -172.241
  C      267.008     -79.767    -171.662
  O      268.226     -83.378    -168.185
  O      266.844     -85.470    -168.859
  H      262.272     -80.344    -170.820
  H      266.402     -85.350    -167.983
  H      266.526     -76.194    -172.588
  H      268.978     -79.610    -172.455
  H      267.100     -80.811    -171.377
  H      264.012     -79.065    -170.372
  H      264.183     -80.435    -172.901
  H      265.229     -82.277    -171.908
  H      263.428     -81.929    -169.465
  H      265.489     -82.835    -168.321
  H      264.638     -84.030    -169.333
  P      263.416     -83.727    -173.377
  C      262.910     -82.685    -175.705
  O      262.594     -82.711    -174.316
  O      263.172     -85.193    -173.524
  O      264.941     -83.443    -173.826
  H      265.211     -84.171    -174.418
  H      262.288     -81.968    -176.199
  H      262.742     -83.654    -176.127
  H      263.937     -82.414    -175.832

 6  7  8  9  10  11  12  13  14  15  16  26  31  32  33  34  35 0
 6-311+G(2d,p)
 ****
 36  37 0
 6-311+G(2d,p)
 ****
 1  2  3  4  5  17  18  19  20  21  22  23  24  25 0
 3-21G
 ****
 27  28  29  30  38  39  40  41  42  43  44  45 0
 3-21G
 ****


