%nproc=1
%NoSave
%Mem=1900MB
#P OB98/GEN NMR

erre ene a

0 1
  C       62.788     165.431    -313.127
  O       63.741     164.810    -312.279
  P       65.275     164.780    -312.747
  C       64.889     162.740    -314.316
  O       65.326     164.083    -314.193
  C       66.085     161.781    -314.249
  O       65.602     160.407    -314.303
  C       67.103     161.960    -315.386
  O       68.405     161.676    -314.854
  C       66.696     160.867    -316.359
  O       67.725     160.522    -317.274
  C       66.322     159.751    -315.371
  N       65.525     158.688    -315.983
  C       66.126     157.441    -316.122
  O       67.276     157.190    -315.760
  N       65.375     156.485    -316.756
  C       64.150     156.678    -317.336
  O       63.585     155.806    -317.996
  C       63.567     158.016    -317.162
  C       64.265     158.943    -316.508
  O       65.930     163.690    -311.777
  O       65.976     166.099    -312.669
  H       67.822     161.266    -317.899
  H       66.414     164.135    -311.050
  H       65.791     155.572    -316.861
  H       62.593     158.193    -317.590
  H       63.870     159.946    -316.378
  H       67.226     159.322    -314.928
  H       65.824     161.199    -316.931
  H       67.082     162.957    -315.839
  H       66.578     161.915    -313.269
  H       64.391     162.610    -315.281
  H       64.164     162.516    -313.528
  P       69.634     162.587    -315.344
  C       70.527     160.814    -317.045
  O       70.006     162.106    -316.825
  O       70.821     161.996    -314.440
  O       69.405     164.057    -315.150
  H       70.809     161.025    -314.395
  H       70.101     160.081    -316.345
  H       71.618     160.827    -316.925
  H       70.288     160.499    -318.067
  H       61.818     165.369    -312.679
  H       62.776     164.933    -314.074
  H       63.051     166.459    -313.267

 3  4  5  6  7  8  9  10  11  12  13  23  28  29  30  31  32 0
 6-311+G(2d,p)
 ****
 33  34 0
 6-311+G(2d,p)
 ****
 1  2  14  15  16  17  18  19  20  21  22  24  25  26 0
 3-21G
 ****
 27  35  36  37  38  39  40  41  42  43  44  45 0
 3-21G
 ****


