%nproc=1
%NoSave
%Mem=1900MB
#P OB98/GEN NMR

erre ene a

0 1
  C      -21.970      21.068      34.554
  O      -21.729      21.815      33.375
  P      -22.616      23.123      33.102
  C      -22.655      25.474      34.273
  O      -22.413      24.083      34.370
  C      -23.220      26.009      35.593
  O      -24.579      25.519      35.757
  C      -22.427      25.590      36.838
  O      -22.483      26.683      37.764
  C      -23.223      24.407      37.361
  O      -22.990      24.156      38.738
  C      -24.651      24.858      37.035
  N      -25.612      23.756      36.988
  C      -25.743      22.959      38.121
  O      -25.085      23.114      39.148
  N      -26.654      21.938      38.026
  C      -27.377      21.603      36.919
  O      -28.165      20.666      36.886
  C      -27.160      22.450      35.738
  C      -26.312      23.474      35.829
  O      -24.093      22.540      33.286
  O      -22.351      23.763      31.783
  H      -24.149      21.859      33.979
  H      -22.941      25.014      39.197
  H      -26.793      21.370      38.849
  H      -27.705      22.207      34.834
  H      -26.134      24.112      34.972
  H      -24.985      25.605      37.765
  H      -22.949      23.508      36.799
  H      -21.386      25.348      36.611
  H      -23.275      27.102      35.524
  H      -23.378      25.661      33.475
  H      -21.724      25.986      34.011
  P      -21.337      26.784      38.889
  C      -18.726      26.946      38.822
  O      -19.926      26.643      38.148
  O      -21.512      25.356      39.599
  O      -21.487      27.926      39.839
  H      -21.555      24.622      38.966
  H      -17.894      26.478      38.288
  H      -18.737      26.569      39.848
  H      -18.573      28.028      38.831
  H      -21.302      20.233      34.590
  H      -22.981      20.717      34.553
  H      -21.809      21.690      35.410

 3  4  5  6  7  8  9  10  11  12  13  24  28  29  30  31  32 0
 6-311+G(2d,p)
 ****
 33  34 0
 6-311+G(2d,p)
 ****
 1  2  14  15  16  17  18  19  20  21  22  23  25  26  27 0
 3-21G
 ****
 35  36  37  38  39  40  41  42  43  44  45 0
 3-21G
 ****


