%nproc=1
%NoSave
%Mem=1900MB
#P OB98/GEN NMR

erre ene a

0 1
  C     -721.485     872.168     930.426
  O     -722.483     873.173     930.356
  P     -722.921     873.692     928.898
  C     -724.995     872.045     928.873
  O     -723.796     872.494     928.262
  C     -726.193     872.440     928.028
  O     -726.407     873.882     928.085
  C     -726.067     872.108     926.547
  O     -726.276     870.739     926.289
  C     -727.114     873.035     925.939
  O     -728.425     872.466     926.079
  C     -726.979     874.298     926.826
  N     -726.198     875.369     926.214
  C     -726.912     876.519     925.855
  O     -728.114     876.639     926.044
  N     -726.168     877.503     925.257
  C     -724.840     877.427     924.939
  O     -724.240     878.331     924.368
  C     -724.156     876.185     925.313
  C     -724.864     875.217     925.924
  O     -721.525     873.644     928.127
  O     -723.571     875.032     928.926
  H     -720.924     872.973     928.515
  H     -728.405     871.603     925.626
  H     -726.655     878.346     925.009
  H     -723.105     876.079     925.061
  H     -724.373     874.295     926.195
  H     -727.985     874.689     927.083
  H     -726.962     873.224     924.872
  H     -725.070     872.401     926.182
  H     -727.087     871.963     928.441
  H     -725.083     872.512     929.866
  H     -724.938     870.971     928.995
  P     -725.585     870.135     924.966
  C     -723.299     870.708     926.083
  O     -724.100     870.716     924.914
  O     -726.356     870.954     923.814
  O     -725.716     868.626     924.849
  H     -726.472     871.881     924.031
  H     -722.249     870.799     925.795
  H     -723.435     869.781     926.662
  H     -723.565     871.553     926.712
  H     -721.297     871.923     931.450
  H     -720.584     872.528     929.974
  H     -721.821     871.295     929.907

 3  4  5  6  7  8  9  10  11  12  13  24  28  29  30  31  32 0
 6-311+G(2d,p)
 ****
 33  34 0
 6-311+G(2d,p)
 ****
 1  2  14  15  16  17  18  19  20  21  22  23  25  26  27 0
 3-21G
 ****
 35  36  37  38  39  40  41  42  43  44  45 0
 3-21G
 ****


