%nproc=1
%NoSave
%Mem=1900MB
#P OB98/GEN NMR

erre ene a

0 1
  C      -74.899     -13.836     107.731
  O      -74.371     -14.900     106.963
  H      -74.363     -12.920     107.468
  H      -74.748     -14.033     108.794
  H      -75.961     -13.694     107.519
  P      -75.072     -16.340     107.047
  C      -74.939     -16.804     104.512
  O      -74.527     -17.208     105.810
  C      -74.154     -17.559     103.434
  O      -72.813     -17.007     103.365
  C      -74.030     -19.064     103.702
  O      -74.109     -19.769     102.464
  C      -72.636     -19.202     104.285
  O      -72.086     -20.501     104.070
  C      -71.880     -18.089     103.561
  N      -67.209     -19.311     105.057
  C      -68.072     -19.971     104.205
  N      -67.638     -21.138     103.685
  N      -69.262     -19.525     103.890
  C      -69.555     -18.333     104.466
  C      -68.791     -17.583     105.324
  C      -67.483     -18.096     105.682
  O      -66.682     -17.566     106.445
  N      -69.446     -16.438     105.709
  C      -70.608     -16.500     105.085
  N      -70.728     -17.636     104.326
  O      -76.563     -16.309     107.179
  O      -74.386     -17.039     108.311
  H      -71.116     -20.423     104.200
  H      -74.993     -17.055     109.073
  H      -66.310     -19.705     105.275
  H      -71.391     -15.758     105.149
  H      -71.505     -18.407     102.580
  H      -72.666     -19.015     105.367
  H      -66.725     -21.529     103.865
  H      -74.800     -19.427     104.380
  H      -68.240     -21.629     103.033
  H      -74.628     -17.372     102.463
  H      -74.758     -15.728     104.414
  H      -76.013     -16.994     104.398
  P      -75.312     -20.804     102.232
  C      -75.870     -19.916      99.884
  O      -75.487     -21.048     100.652
  O      -76.575     -20.493     102.962
  O      -74.686     -22.195     102.732
  H      -75.394     -22.728     103.144
  H      -75.955     -20.196      98.855
  H      -75.130     -19.149      99.985
  H      -76.813     -19.550     100.234

 6  7  8  9  10  11  12  13  14  15  26  29  33  34 0
 6-311+G(2d,p)
 ****
 36  38  39  40  41 0
 6-311+G(2d,p)
 ****
 1  2  3  4  5  16  17  18  19  20  21  22  23  24  25 0
 3-21G
 ****
 27  28  30  31  32  35  37  42  43  44  45  46  47 0
 3-21G
 ****
 48  49 0
 3-21G
 ****


