%nproc=1
%NoSave
%Mem=1900MB
#P OB98/GEN NMR

erre ene a

0 1
  C     -394.428    -174.514    -157.547
  O     -394.788    -173.360    -156.766
  P     -394.176    -173.045    -155.318
  C     -394.808    -173.357    -152.832
  O     -395.162    -173.624    -154.188
  C     -395.938    -173.708    -151.866
  O     -397.149    -172.943    -152.201
  C     -396.340    -175.201    -151.846
  O     -396.626    -175.537    -150.490
  C     -397.596    -175.205    -152.712
  O     -398.403    -176.356    -152.544
  C     -398.240    -173.899    -152.236
  N     -399.331    -173.401    -153.065
  C     -400.636    -173.806    -152.736
  O     -400.848    -174.597    -151.828
  N     -401.687    -173.315    -153.478
  C     -401.451    -172.497    -154.465
  N     -402.547    -172.038    -155.151
  C     -400.109    -172.053    -154.857
  C     -399.108    -172.538    -154.124
  O     -393.811    -171.614    -155.116
  O     -392.877    -173.984    -155.199
  H     -392.182    -173.497    -154.693
  H     -399.189    -176.252    -153.118
  H     -399.966    -171.361    -155.677
  H     -398.080    -172.242    -154.326
  H     -398.594    -174.020    -151.205
  H     -397.300    -175.157    -153.766
  H     -395.543    -175.861    -152.215
  H     -395.646    -173.386    -150.861
  H     -403.459    -172.351    -154.848
  H     -394.577    -172.284    -152.735
  H     -402.484    -171.389    -155.925
  H     -393.903    -173.919    -152.582
  P     -395.846    -176.742    -149.781
  C     -396.371    -179.232    -149.196
  O     -396.776    -178.046    -149.848
  O     -395.954    -176.342    -148.229
  O     -394.411    -176.916    -150.169
  H     -395.210    -176.731    -147.745
  H     -397.221    -179.656    -148.658
  H     -395.555    -179.054    -148.484
  H     -396.028    -179.958    -149.953
  H     -394.968    -174.502    -158.471
  H     -394.671    -175.403    -157.003
  H     -393.377    -174.495    -157.748

 3  4  5  6  7  8  9  10  11  12  13  24  27  28  29  30  32 0
 6-311+G(2d,p)
 ****
 34  35 0
 6-311+G(2d,p)
 ****
 1  2  14  15  16  17  18  19  20  21  22  23  25  26 0
 3-21G
 ****
 31  33  36  37  38  39  40  41  42  43  44  45  46 0
 3-21G
 ****


