%nproc=1
%NoSave
%Mem=1900MB
#P OB98/GEN NMR

erre ene a

0 1
  C      642.888     293.527    -638.510
  O      641.828     293.456    -637.550
  P      642.239     293.446    -635.992
  C      640.496     291.613    -635.320
  O      640.974     292.937    -635.171
  C      638.957     291.599    -635.484
  O      638.369     292.182    -634.293
  C      638.422     292.416    -636.650
  O      637.076     291.990    -636.925
  C      638.381     293.807    -636.056
  O      637.526     294.674    -636.795
  C      637.940     293.533    -634.596
  N      638.525     294.479    -633.615
  C      638.022     295.770    -633.557
  O      637.117     296.186    -634.287
  N      638.613     296.615    -632.664
  C      639.624     296.285    -631.794
  O      640.187     297.103    -631.071
  C      640.020     294.869    -631.781
  C      639.475     294.054    -632.689
  O      642.351     295.006    -635.633
  O      643.511     292.716    -635.706
  H      636.642     294.238    -636.834
  H      643.294     295.261    -635.552
  H      638.312     297.582    -632.661
  H      640.758     294.568    -631.067
  H      639.768     293.005    -632.704
  H      636.850     293.591    -634.484
  H      639.373     294.246    -636.061
  H      639.015     292.370    -637.558
  H      638.617     290.561    -635.547
  H      640.796     290.996    -634.476
  H      640.946     291.165    -636.216
  P      636.879     290.542    -637.601
  C      635.110     291.178    -639.351
  O      635.370     290.487    -638.135
  O      637.319     289.367    -636.783
  O      637.723     290.669    -638.964
  H      637.931     289.775    -639.308
  H      634.279     290.681    -639.867
  H      635.978     291.198    -640.006
  H      634.803     292.202    -639.109
  H      642.476     293.526    -639.497
  H      643.533     292.682    -638.392
  H      643.447     294.427    -638.358

 3  4  5  6  7  8  9  10  11  12  13  23  28  29  30  31  32 0
 6-311+G(2d,p)
 ****
 33  34 0
 6-311+G(2d,p)
 ****
 1  2  14  15  16  17  18  19  20  21  22  24  25  26  27 0
 3-21G
 ****
 35  36  37  38  39  40  41  42  43  44  45 0
 3-21G
 ****


