%nproc=1
%NoSave
%Mem=1900MB
#P OB98/GEN NMR

erre ene a

0 1
  C      687.794    -450.295     319.524
  O      688.728    -450.414     320.578
  H      687.525    -449.243     319.383
  H      688.260    -450.655     318.598
  H      686.906    -450.895     319.718
  P      688.185    -450.103     322.056
  C      688.764    -447.573     321.758
  O      687.755    -448.548     322.042
  C      688.392    -446.230     322.396
  O      688.327    -446.403     323.836
  C      689.410    -445.120     322.100
  O      688.708    -443.885     321.897
  C      690.234    -445.035     323.379
  O      690.824    -443.767     323.558
  C      689.189    -445.412     324.433
  N      691.325    -444.083     328.878
  C      690.712    -443.361     327.914
  N      690.164    -443.784     326.759
  C      690.240    -445.125     326.680
  C      690.829    -446.003     327.585
  C      691.412    -445.430     328.725
  N      692.059    -446.158     329.683
  N      690.743    -447.295     327.108
  C      690.119    -447.221     325.953
  N      689.795    -445.914     325.641
  O      689.537    -450.115     322.929
  O      687.167    -451.047     322.591
  H      690.121    -443.088     323.511
  H      689.791    -451.032     323.112
  H      690.670    -442.280     328.104
  H      689.878    -448.040     325.299
  H      688.562    -444.540     324.719
  H      691.024    -445.793     323.356
  H      690.030    -445.329     321.231
  H      687.388    -445.951     322.058
  H      688.838    -447.459     320.667
  H      692.489    -445.663     330.443
  H      692.173    -447.154     329.553
  H      689.726    -447.920     322.152
  P      688.527    -443.401     320.374
  C      690.544    -441.758     320.595
  O      689.933    -442.813     319.873
  O      687.615    -442.083     320.531
  O      687.896    -444.405     319.487
  H      686.871    -442.132     319.898
  H      691.468    -441.492     320.125
  H      690.734    -442.076     321.599
  H      689.892    -440.909     320.607

 6  7  8  9  10  11  12  13  14  15  25  28  32  33  34  35 0
 6-311+G(2d,p)
 ****
 36  39  40 0
 6-311+G(2d,p)
 ****
 1  2  3  4  5  16  17  18  19  20  21  22  23  24 0
 3-21G
 ****
 26  27  29  30  31  37  38  41  42  43  44  45  46  47 0
 3-21G
 ****
 48 0
 3-21G
 ****


