%nproc=1
%NoSave
%Mem=1900MB
#P OB98/GEN NMR

erre ene a

0 1
  C      225.299    -211.298     -15.558
  O      224.899    -210.722     -14.314
  P      225.932    -209.720     -13.599
  C      226.642    -211.346     -11.677
  O      227.010    -210.652     -12.859
  C      227.885    -211.688     -10.843
  O      227.473    -212.109      -9.503
  C      228.757    -212.805     -11.432
  O      230.121    -212.453     -11.149
  C      228.351    -214.023     -10.622
  O      229.348    -215.034     -10.643
  C      228.101    -213.382      -9.252
  N      227.286    -214.223      -8.374
  C      227.955    -215.169      -7.606
  O      229.164    -215.374      -7.701
  N      227.174    -215.913      -6.763
  C      225.811    -215.854      -6.671
  O      225.163    -216.544      -5.893
  C      225.150    -214.911      -7.590
  C      225.908    -214.153      -8.388
  O      225.035    -209.130     -12.415
  O      226.498    -208.701     -14.538
  H      224.428    -209.784     -12.026
  H      228.996    -215.839     -10.214
  H      227.642    -216.584      -6.171
  H      224.066    -214.880      -7.585
  H      225.448    -213.469      -9.091
  H      229.055    -213.183      -8.745
  H      227.423    -214.443     -11.027
  H      228.622    -212.922     -12.507
  H      228.474    -210.775     -10.725
  H      226.125    -212.273     -11.936
  H      225.935    -210.734     -11.104
  P      230.913    -211.554     -12.227
  C      231.852    -213.417     -13.814
  O      230.924    -212.373     -13.603
  O      232.414    -211.733     -11.691
  O      230.487    -210.126     -12.294
  H      232.642    -212.658     -11.493
  H      231.548    -213.988     -14.692
  H      231.892    -214.091     -12.953
  H      232.848    -212.994     -14.002
  H      224.523    -211.940     -15.920
  H      226.195    -211.866     -15.416
  H      225.479    -210.520     -16.270

 3  4  5  6  7  8  9  10  11  12  13  24  28  29  30  31  32 0
 6-311+G(2d,p)
 ****
 33  34 0
 6-311+G(2d,p)
 ****
 1  2  14  15  16  17  18  19  20  21  22  23  25  26  27 0
 3-21G
 ****
 35  36  37  38  39  40  41  42  43  44  45 0
 3-21G
 ****


