%nproc=1
%NoSave
%Mem=1900MB
#P OB98/GEN NMR

erre ene a

0 1
  C      -27.798     -57.606      88.337
  O      -28.077     -56.953      87.114
  H      -26.845     -57.257      88.742
  H      -28.592     -57.370      89.049
  H      -27.767     -58.690      88.189
  P      -27.037     -57.198      85.916
  C      -25.381     -55.280      86.479
  O      -25.614     -56.680      86.448
  C      -24.481     -54.923      87.658
  O      -25.180     -55.136      88.901
  C      -23.204     -55.752      87.758
  O      -22.201     -55.285      86.869
  C      -22.820     -55.505      89.210
  O      -22.187     -54.217      89.332
  C      -24.191     -55.485      89.904
  N      -24.819     -58.033      94.296
  C      -24.523     -56.742      94.038
  N      -24.393     -56.131      92.841
  C      -24.622     -56.999      91.842
  C      -24.956     -58.338      91.947
  C      -25.049     -58.863      93.247
  N      -25.287     -60.205      93.498
  N      -25.099     -58.907      90.697
  C      -24.837     -57.932      89.853
  N      -24.550     -56.758      90.497
  O      -27.469     -56.091      84.840
  O      -27.051     -58.572      85.334
  H      -21.333     -54.279      88.864
  H      -28.048     -56.503      84.172
  H      -24.365     -56.113      94.908
  H      -24.837     -58.029      88.776
  H      -24.245     -54.723      90.690
  H      -22.120     -56.248      89.602
  H      -23.404     -56.820      87.618
  H      -24.247     -53.853      87.590
  H      -26.336     -54.754      86.581
  H      -24.878     -60.533      94.368
  H      -25.182     -60.806      92.689
  H      -24.910     -54.983      85.537
  P      -21.474     -56.365      85.932
  C      -19.785     -56.765      87.850
  O      -20.675     -57.355      86.913
  O      -20.317     -55.507      85.233
  O      -22.347     -57.022      84.919
  H      -20.398     -55.575      84.262
  H      -19.323     -57.532      88.435
  H      -20.330     -56.105      88.493
  H      -19.032     -56.213      87.328

 6  7  8  9  10  11  12  13  14  15  25  28  32  33  34  35 0
 6-311+G(2d,p)
 ****
 36  39  40 0
 6-311+G(2d,p)
 ****
 1  2  3  4  5  16  17  18  19  20  21  22  23  24 0
 3-21G
 ****
 26  27  29  30  31  37  38  41  42  43  44  45  46  47  48 0
 3-21G
 ****


