%nproc=1
%NoSave
%Mem=1900MB
#P OB98/GEN NMR

erre ene a

0 1
  C      113.968     378.076     -71.516
  O      115.089     378.349     -70.698
  H      113.080     378.513     -71.053
  H      113.822     376.996     -71.607
  H      114.103     378.518     -72.506
  P      116.506     377.806     -71.216
  C      116.796     376.274     -69.136
  O      116.707     376.358     -70.552
  C      117.100     374.835     -68.726
  O      115.956     373.995     -69.008
  C      118.260     374.210     -69.489
  O      119.521     374.630     -68.995
  C      117.989     372.729     -69.273
  O      118.501     372.282     -68.011
  C      116.458     372.666     -69.279
  N      113.145     369.448     -71.453
  C      113.376     369.767     -70.162
  N      114.270     370.647     -69.664
  C      114.949     371.246     -70.658
  C      114.817     371.026     -72.019
  C      113.862     370.077     -72.413
  N      113.642     369.731     -73.727
  N      115.718     371.802     -72.726
  C      116.374     372.484     -71.807
  N      115.939     372.185     -70.546
  O      117.555     378.732     -70.438
  O      116.703     377.861     -72.694
  H      118.403     371.311     -68.003
  H      117.870     379.438     -71.034
  H      112.771     369.240     -69.429
  H      117.165     373.195     -72.005
  H      116.067     372.006     -68.496
  H      118.459     372.130     -70.050
  H      118.173     374.432     -70.560
  H      117.285     374.810     -67.645
  H      115.843     376.580     -68.692
  H      117.585     376.948     -68.787
  H      112.989     368.993     -73.932
  H      114.250     370.111     -74.440
  P      120.825     374.187     -69.815
  C      122.052     372.793     -67.983
  O      121.321     372.792     -69.200
  O      121.946     375.228     -69.342
  O      120.656     374.186     -71.296
  H      122.542     375.436     -70.089
  H      122.303     371.787     -67.717
  H      121.455     373.228     -67.209
  H      122.949     373.364     -68.106

 6  7  8  9  10  11  12  13  14  15  25  28  32  33  34  35 0
 6-311+G(2d,p)
 ****
 36  37  40 0
 6-311+G(2d,p)
 ****
 1  2  3  4  5  16  17  18  19  20  21  22  23  24 0
 3-21G
 ****
 26  27  29  30  31  38  39 41  42  43  44  45  46  47  48 0
 3-21G
 ****


