%nproc=1
%NoSave
%Mem=1900MB
#P OB98/GEN NMR

erre ene a

0 1
  C      867.431       9.404    -511.695
  O      866.292       9.254    -512.516
  H      867.887       8.421    -511.543
  H      867.144       9.813    -510.723
  H      868.162      10.062    -512.171
  P      865.553      10.592    -513.005
  C      866.335      10.661    -515.482
  O      866.459      11.214    -514.177
  C      866.841      11.652    -516.528
  O      865.906      12.755    -516.623
  C      868.223      12.227    -516.214
  O      868.958      12.364    -517.435
  C      867.915      13.611    -515.658
  O      869.001      14.524    -515.820
  C      866.643      13.981    -516.435
  N      865.856      14.981    -515.722
  C      866.430      16.250    -515.591
  O      867.548      16.475    -516.054
  N      865.754      17.216    -514.887
  C      864.641      16.914    -514.288
  N      864.037      17.906    -513.577
  C      864.033      15.572    -514.342
  C      864.685      14.664    -515.070
  O      865.784      11.609    -511.794
  O      864.111      10.434    -513.353
  H      868.701      15.412    -515.507
  H      865.034      12.228    -511.703
  H      863.121      15.363    -513.805
  H      864.318      13.645    -515.164
  H      866.899      14.370    -517.427
  H      867.697      13.535    -514.587
  H      868.794      11.618    -515.508
  H      866.845      11.152    -517.505
  H      864.492      18.811    -513.556
  H      865.280      10.448    -515.678
  H      863.193      17.768    -513.043
  H      866.903       9.720    -515.531
  P      869.605      11.030    -518.033
  C      868.480      10.923    -520.380
  O      868.555      10.379    -519.067
  O      869.587      10.013    -516.797
  O      870.981      11.217    -518.569
  H      870.493       9.878    -516.460
  H      867.744      10.390    -520.945
  H      869.432      10.831    -520.859
  H      868.207      11.956    -520.323

 6  7  8  9  10  11  12  13  14  15  16  26  30  31  32  33  35 0
 6-311+G(2d,p)
 ****
 37  38 0
 6-311+G(2d,p)
 ****
 1  2  3  4  5  17  18  19  20  21  22  23  24  25 0
 3-21G
 ****
 27  28  29  34  36  39  40  41  42  43  44  45  46 0
 3-21G
 ****


