%nproc=1
%NoSave
%Mem=1900MB
#P OB98/GEN NMR

erre ene a

0 1
  C      521.579      84.965    -553.153
  O      521.945      85.136    -554.511
  H      520.659      84.376    -553.084
  H      522.380      84.436    -552.635
  H      521.429      85.941    -552.675
  P      520.905      85.905    -555.454
  C      522.919      86.853    -556.802
  O      521.680      86.156    -556.845
  C      523.742      86.509    -558.035
  O      524.552      85.325    -557.772
  C      522.912      86.173    -559.274
  O      522.473      87.339    -559.947
  C      523.947      85.413    -560.097
  O      524.862      86.343    -560.706
  C      524.652      84.584    -559.022
  N      523.636      80.106    -561.287
  C      524.186      81.252    -561.746
  N      524.428      82.395    -561.101
  C      524.009      82.290    -559.817
  C      523.426      81.206    -559.199
  C      523.229      80.056    -559.994
  N      522.648      78.895    -559.534
  N      523.103      81.488    -557.879
  C      523.541      82.727    -557.699
  N      524.084      83.254    -558.835
  O      520.824      87.374    -554.806
  O      519.556      85.274    -555.596
  H      524.313      86.947    -561.255
  H      520.000      87.818    -555.091
  H      524.483      81.229    -562.803
  H      523.457      83.282    -556.769
  H      525.728      84.447    -559.233
  H      523.488      84.826    -560.908
  H      522.081      85.513    -559.034
  H      524.429      87.339    -558.236
  H      523.465      86.560    -555.899
  H      522.393      78.209    -560.229
  H      522.221      78.907    -558.623
  H      522.719      87.936    -556.769
  P      520.974      87.340    -560.520
  C      520.130      89.712    -559.850
  O      520.637      88.862    -560.893
  O      520.087      87.062    -559.220
  O      520.721      86.331    -561.606
  H      519.238      86.622    -559.458
  H      519.952      90.691    -560.243
  H      520.847      89.770    -559.058
  H      519.214      89.307    -559.473

 6  7  8  9  10  11  12  13  14  15  25  28  32  33  34  35 0
 6-311+G(2d,p)
 ****
 36  39  40 0
 6-311+G(2d,p)
 ****
 1  2  3  4  5  16  17  18  19  20  21  22  23  24 0
 3-21G
 ****
 26  27  29  30  31  37  38  41  42  43  44  45  46  47 0
 3-21G
 ****
 48 0
 3-21G
 ****


