%nproc=1
%NoSave
%Mem=1900MB
#P OB98/GEN NMR

erre ene a

0 1
  C      142.756      47.463      87.743
  O      141.510      46.806      87.798
  H      143.227      47.402      88.727
  H      142.605      48.516      87.490
  H      143.420      47.001      87.007
  P      140.821      46.345      86.431
  C      142.343      44.269      86.244
  O      141.879      45.456      85.613
  C      142.459      43.110      85.254
  O      141.167      42.838      84.672
  C      143.409      43.422      84.095
  O      144.770      43.125      84.354
  C      142.856      42.530      82.986
  O      143.440      41.218      83.030
  C      141.358      42.461      83.301
  N      138.445      42.810      79.114
  C      139.225      41.752      79.541
  N      139.255      40.674      78.729
  N      139.916      41.770      80.651
  C      139.865      42.952      81.305
  C      139.144      44.076      80.969
  C      138.323      44.022      79.779
  O      137.602      44.924      79.367
  N      139.370      45.103      81.853
  C      140.291      44.627      82.667
  N      140.563      43.301      82.424
  O      140.767      47.697      85.567
  O      139.452      45.751      86.566
  H      144.402      41.311      82.883
  H      139.987      47.680      84.984
  H      137.912      42.728      78.267
  H      140.758      45.180      83.474
  H      140.974      41.439      83.195
  H      143.087      42.944      82.002
  H      138.813      40.641      77.825
  H      143.305      44.463      83.778
  H      139.960      39.956      78.908
  H      142.766      42.205      85.792
  H      141.616      44.026      87.021
  H      143.302      44.450      86.736
  P      145.939      43.893      83.582
  C      146.048      45.647      85.532
  O      146.024      45.382      84.147
  O      145.335      44.088      82.114
  O      147.259      43.195      83.556
  H      145.677      43.406      81.507
  H      146.107      46.703      85.692
  H      146.900      45.172      85.971
  H      145.155      45.267      85.983

 6  7  8  9  10  11  12  13  14  15  26  29  33  34 0
 6-311+G(2d,p)
 ****
 36  38  39  40  41 0
 6-311+G(2d,p)
 ****
 1  2  3  4  5  16  17  18  19  20  21  22  23  24  25 0
 3-21G
 ****
 27  28  30  31  32  35  37  42  43  44  45  46  47 0
 3-21G
 ****
 48  49 0
 3-21G
 ****


