%nproc=1
%NoSave
%Mem=1900MB
#P OB98/GEN NMR

erre ene a

0 1
  C     -151.772      66.035     113.379
  O     -151.988      64.947     112.505
  H     -150.731      66.354     113.287
  H     -151.955      65.737     114.413
  H     -152.419      66.874     113.110
  P     -153.428      64.244     112.490
  C     -152.902      62.345     114.157
  O     -153.620      63.552     113.925
  C     -153.287      61.755     115.519
  O     -152.569      60.506     115.677
  C     -152.914      62.678     116.687
  O     -154.008      62.938     117.562
  C     -151.672      62.014     117.271
  O     -151.452      62.289     118.639
  C     -151.881      60.533     116.941
  N     -150.640      59.764     116.868
  C     -149.826      59.754     117.997
  O     -150.076      60.331     119.052
  N     -148.668      59.029     117.885
  C     -148.249      58.344     116.783
  O     -147.203      57.710     116.744
  C     -149.138      58.415     115.613
  C     -150.273      59.111     115.707
  O     -153.696      63.351     111.327
  O     -154.458      65.468     112.542
  H     -151.182      63.229     118.705
  H     -154.859      65.593     111.660
  H     -148.078      59.002     118.701
  H     -148.831      57.895     114.716
  H     -150.953      59.182     114.864
  H     -152.520      60.058     117.687
  H     -150.795      62.379     116.725
  H     -152.641      63.675     116.323
  H     -154.357      61.521     115.513
  H     -151.833      62.580     114.134
  H     -153.126      61.625     113.364
  P     -154.874      64.276     117.573
  C     -153.326      65.710     119.143
  O     -153.902      65.512     117.858
  O     -156.144      64.224     118.356
  O     -155.272      64.487     116.023
  H     -156.148      64.918     116.021
  H     -152.711      66.586     119.127
  H     -152.730      64.860     119.401
  H     -154.104      65.833     119.867

 6  7  8  9  10  11  12  13  14  15  16  26  31  32  33  34  35 0
 6-311+G(2d,p)
 ****
 36  37 0
 6-311+G(2d,p)
 ****
 1  2  3  4  5  17  18  19  20  21  22  23  24  25 0
 3-21G
 ****
 27  28  29  30  38  39  40  41  42  43  44  45 0
 3-21G
 ****


