%nproc=1
%NoSave
%Mem=1900MB
#P OB98/GEN NMR

erre ene a

0 1
  C      -60.216     -62.994     374.845
  O      -60.310     -63.527     376.150
  H      -59.165     -62.966     374.550
  H      -60.613     -61.974     374.825
  H      -60.767     -63.618     374.135
  P      -61.784     -63.737     376.743
  C      -61.628     -63.431     379.315
  O      -61.603     -64.341     378.220
  C      -60.861     -64.002     380.507
  O      -61.433     -65.289     380.866
  C      -59.359     -64.230     380.242
  O      -58.652     -63.958     381.460
  C      -59.287     -65.720     379.976
  O      -57.983     -66.254     380.188
  C      -60.344     -66.224     380.959
  N      -59.423     -71.078     381.939
  C      -58.844     -69.931     382.452
  N      -57.867     -70.103     383.369
  N      -59.197     -68.723     382.099
  C      -60.208     -68.704     381.206
  C      -60.861     -69.757     380.613
  C      -60.443     -71.089     380.992
  O      -60.904     -72.140     380.559
  N      -61.816     -69.318     379.721
  C      -61.732     -67.997     379.781
  N      -60.775     -67.579     380.661
  O      -62.332     -64.981     375.891
  O      -62.693     -62.552     376.645
  H      -57.687     -65.984     381.093
  H      -62.831     -64.664     375.116
  H      -59.104     -71.977     382.237
  H      -62.338     -67.314     379.199
  H      -59.984     -66.230     381.993
  H      -59.580     -65.939     378.941
  H      -57.577     -71.005     383.725
  H      -58.948     -63.624     379.433
  H      -57.461     -69.278     383.793
  H      -61.008     -63.333     381.364
  H      -62.671     -63.262     379.605
  H      -61.186     -62.482     379.000
  P      -57.270     -63.146     381.360
  C      -55.843     -64.275     383.235
  O      -56.593     -63.137     382.823
  O      -57.756     -61.629     381.190
  O      -56.381     -63.575     380.242
  H      -57.085     -61.123     380.698
  H      -55.463     -64.113     384.222
  H      -55.028     -64.429     382.559
  H      -56.475     -65.138     383.233

 6  7  8  9  10  11  12  13  14  15  26  29  33  34 0
 6-311+G(2d,p)
 ****
 36  38  39  40  41 0
 6-311+G(2d,p)
 ****
 1  2  3  4  5  16  17  18  19  20  21  22  23  24  25 0
 3-21G
 ****
 27  28  30  31  32  35  37  42  43  44  45  46  47 0
 3-21G
 ****
 48  49 0
 3-21G
 ****


