%nproc=1
%NoSave
%Mem=1900MB
#P OB98/GEN NMR

erre ene a

0 1
  C      -49.119      -0.245    -748.207
  O      -48.037       0.071    -747.349
  H      -50.028      -0.319    -747.605
  H      -48.938      -1.202    -748.699
  H      -49.251       0.541    -748.954
  P      -46.596       0.249    -748.044
  C      -45.528      -0.624    -745.836
  O      -45.590      -0.720    -747.255
  C      -44.585      -1.691    -745.291
  O      -45.144      -3.007    -745.531
  C      -43.216      -1.705    -745.954
  O      -42.369      -0.682    -745.465
  C      -42.737      -3.105    -745.614
  O      -42.165      -3.159    -744.304
  C      -44.033      -3.926    -745.658
  N      -44.670      -8.594    -747.630
  C      -44.679      -8.144    -746.357
  N      -44.511      -6.878    -745.921
  C      -44.358      -6.031    -746.950
  C      -44.327      -6.348    -748.300
  C      -44.498      -7.700    -748.642
  N      -44.477      -8.164    -749.927
  N      -44.108      -5.215    -749.055
  C      -44.009      -4.235    -748.184
  N      -44.157      -4.680    -746.898
  O      -46.153       1.718    -747.580
  O      -46.587       0.104    -749.530
  H      -41.372      -2.581    -744.323
  H      -46.321       2.349    -748.304
  H      -44.818      -8.896    -745.593
  H      -43.824      -3.186    -748.425
  H      -44.102      -4.638    -744.833
  H      -41.978      -3.443    -746.325
  H      -43.329      -1.621    -747.048
  H      -44.489      -1.555    -744.199
  H      -46.528      -0.778    -745.416
  H      -45.184       0.379    -745.563
  H      -44.536      -9.155    -750.089
  H      -44.232      -7.522    -750.672
  P      -41.699       0.313    -746.535
  C      -39.613       0.973    -745.117
  O      -40.119       0.312    -746.268
  O      -42.169       1.771    -746.053
  O      -42.088       0.043    -747.953
  H      -42.320       2.343    -746.834
  H      -38.548       0.877    -745.090
  H      -40.033       0.531    -744.238
  H      -39.877       2.009    -745.156

 6  7  8  9  10  11  12  13  14  15  25  28  32  33  34  35 0
 6-311+G(2d,p)
 ****
 36  37  40 0
 6-311+G(2d,p)
 ****
 1  2  3  4  5  16  17  18  19  20  21  22  23  24 0
 3-21G
 ****
 26  27  29  30  31  38  39 41  42  43  44  45  46  47  48 0
 3-21G
 ****


