%nproc=1
%NoSave
%Mem=1900MB
#P OB98/GEN NMR

erre ene a

0 1
  C      -68.539    -804.294     111.858
  O      -68.110    -805.300     112.753
  P      -69.188    -806.234     113.482
  C      -70.315    -806.083     115.822
  O      -69.780    -805.401     114.710
  C      -71.050    -805.123     116.765
  O      -72.319    -804.781     116.155
  C      -71.398    -805.707     118.139
  O      -71.671    -804.637     119.033
  C      -72.667    -806.465     117.839
  O      -73.437    -806.728     119.015
  C      -73.369    -805.567     116.776
  N      -74.080    -806.368     115.768
  C      -75.369    -806.779     116.094
  O      -75.933    -806.447     117.138
  N      -75.951    -807.661     115.229
  C      -75.354    -808.181     114.125
  O      -75.746    -809.189     113.540
  C      -74.102    -807.533     113.693
  C      -73.505    -806.681     114.538
  O      -68.264    -807.358     114.174
  O      -70.203    -806.844     112.575
  H      -72.853    -807.219     119.637
  H      -68.221    -808.151     113.620
  H      -76.820    -808.077     115.536
  H      -73.666    -807.816     112.741
  H      -72.560    -806.220     114.290
  H      -74.090    -804.884     117.249
  H      -72.418    -807.436     117.393
  H      -70.616    -806.363     118.554
  H      -70.465    -804.206     116.883
  H      -69.507    -806.603     116.344
  H      -71.017    -806.861     115.482
  P      -72.074    -804.993     120.548
  C      -74.083    -806.133     121.666
  O      -73.597    -805.542     120.486
  O      -71.813    -803.950     121.566
  O      -71.236    -806.330     120.828
  H      -71.167    -806.482     121.793
  H      -75.174    -805.982     121.699
  H      -73.631    -805.691     122.577
  H      -73.879    -807.213     121.648
  H      -67.688    -803.775     111.470
  H      -69.173    -803.604     112.374
  H      -69.081    -804.742     111.052

 3  4  5  6  7  8  9  10  11  12  13  23  28  29  30  31  32 0
 6-311+G(2d,p)
 ****
 33  34 0
 6-311+G(2d,p)
 ****
 1  2  14  15  16  17  18  19  20  21  22  24  25  26  27 0
 3-21G
 ****
 35  36  37  38  39  40  41  42  43  44  45 0
 3-21G
 ****


