%nproc=1
%NoSave
%Mem=1900MB
#P OB98/GEN NMR

erre ene a

0 1
  C      156.620     116.364    -100.516
  O      155.583     115.767    -101.263
  H      157.040     117.191    -101.095
  H      157.410     115.635    -100.326
  H      156.237     116.754     -99.569
  P      154.715     114.626    -100.542
  C      152.473     114.651     -99.234
  O      153.618     115.382     -99.644
  C      151.526     115.550     -98.437
  O      152.116     115.816     -97.138
  C      151.242     116.895     -99.109
  O      149.872     117.237     -98.888
  C      152.134     117.867     -98.359
  O      151.649     119.208     -98.408
  C      152.160     117.246     -96.957
  N      153.344     117.661     -96.209
  C      153.424     119.013     -95.859
  O      152.528     119.790     -96.189
  N      154.535     119.462     -95.198
  C      155.526     118.652     -94.982
  N      156.616     119.166     -94.349
  C      155.515     117.234     -95.394
  C      154.401     116.808     -95.987
  O      155.723     114.021     -99.458
  O      154.158     113.579    -101.447
  H      152.125     119.735     -97.729
  H      155.552     113.073     -99.305
  H      156.375     116.606     -95.213
  H      154.304     115.788     -96.331
  H      151.266     117.534     -96.390
  H      153.139     117.857     -98.797
  H      151.448     116.892    -100.185
  H      150.595     114.999     -98.257
  H      156.591     120.148     -94.100
  H      152.791     113.818     -98.598
  H      157.459     118.641     -94.171
  H      151.964     114.246    -100.116
  P      148.965     117.458    -100.192
  C      148.491     116.034    -102.312
  O      148.782     116.043    -100.921
  O      149.927     118.274    -101.177
  O      147.695     118.199     -99.920
  H      149.623     119.198    -101.250
  H      148.398     115.023    -102.650
  H      149.283     116.518    -102.845
  H      147.573     116.555    -102.488

 6  7  8  9  10  11  12  13  14  15  16  26  30  31  32  33  35 0
 6-311+G(2d,p)
 ****
 37  38 0
 6-311+G(2d,p)
 ****
 1  2  3  4  5  17  18  19  20  21  22  23  24  25 0
 3-21G
 ****
 27  28  29  34  36  39  40  41  42  43  44  45  46 0
 3-21G
 ****


