%nproc=1
%NoSave
%Mem=1900MB
#P OB98/GEN NMR

erre ene a

0 1
  C      871.481    -730.118    -453.500
  O      871.855    -729.349    -452.368
  P      870.740    -728.404    -451.708
  C      869.111    -726.641    -452.726
  O      870.329    -727.364    -452.866
  C      869.353    -725.128    -452.863
  O      869.804    -724.839    -454.199
  C      868.117    -724.285    -452.644
  O      867.856    -724.058    -451.259
  C      868.555    -722.981    -453.317
  O      869.426    -722.230    -452.444
  C      869.341    -723.501    -454.522
  N      866.704    -720.741    -457.940
  C      867.328    -720.397    -456.799
  N      868.000    -721.199    -455.935
  C      867.944    -722.485    -456.344
  C      867.305    -722.976    -457.459
  C      866.680    -722.048    -458.309
  N      866.066    -722.401    -459.487
  N      867.485    -724.348    -457.558
  C      868.216    -724.651    -456.497
  N      868.546    -723.567    -455.735
  O      871.581    -727.505    -450.693
  O      869.611    -729.108    -451.055
  H      868.965    -722.173    -451.582
  H      870.985    -727.154    -449.988
  H      867.293    -719.341    -456.536
  H      868.544    -725.661    -456.245
  H      870.222    -722.889    -454.755
  H      867.716    -722.331    -453.566
  H      867.250    -724.680    -453.164
  H      870.149    -724.867    -452.154
  H      868.694    -726.841    -451.727
  H      865.792    -721.650    -460.103
  H      866.234    -723.339    -459.839
  H      868.400    -726.986    -453.491
  P      866.321    -723.813    -450.853
  C      864.584    -721.965    -451.500
  O      865.965    -722.367    -451.418
  O      866.400    -723.590    -449.270
  O      865.407    -724.913    -451.236
  H      865.565    -723.821    -448.845
  H      864.549    -720.872    -451.598
  H      864.049    -722.251    -450.561
  H      864.128    -722.439    -452.350
  H      872.318    -730.696    -453.831
  H      871.165    -729.465    -454.286
  H      870.677    -730.773    -453.236

 3  4  5  6  7  8  9  10  11  12  22  25  29  30  31  32 0
 6-311+G(2d,p)
 ****
 33  36  37 0
 6-311+G(2d,p)
 ****
 1  2  13  14  15  16  17  18  19  20  21  23  24  26 0
 3-21G
 ****
 27  28  34  35  38  39  40  41  42  43  44  45  46  47  48 0
 3-21G
 ****


