%nproc=1
%NoSave
%Mem=1900MB
#P OB98/GEN NMR

erre ene a

0 1
  C      223.224      -0.373     283.265
  O      224.283      -0.783     284.144
  P      224.052      -1.173     285.683
  C      224.094      -3.381     287.036
  O      224.587      -2.671     285.905
  C      224.353      -4.885     286.891
  O      223.571      -5.424     285.798
  C      225.789      -5.268     286.545
  O      226.662      -5.124     287.647
  C      225.602      -6.708     286.072
  O      225.584      -7.624     287.173
  C      224.213      -6.662     285.405
  N      224.272      -6.787     283.958
  C      225.017      -7.856     283.450
  O      225.650      -8.591     284.209
  N      225.033      -8.055     282.091
  C      224.453      -7.199     281.306
  N      224.488      -7.459     279.972
  C      223.770      -5.985     281.796
  C      223.716      -5.846     283.118
  O      222.651      -0.961     286.160
  O      225.085      -0.270     286.510
  H      224.745      -0.128     287.412
  H      226.517      -7.833     287.386
  H      223.335      -5.283     281.104
  H      223.222      -4.990     283.563
  H      223.575      -7.457     285.810
  H      226.407      -7.025     285.399
  H      226.134      -4.651     285.708
  H      224.039      -5.376     287.820
  H      224.954      -8.307     279.670
  H      223.013      -3.214     287.105
  H      224.049      -6.873     279.276
  H      224.568      -2.989     287.944
  P      228.178      -4.711     287.325
  C      229.824      -3.298     288.756
  O      228.901      -4.373     288.713
  O      228.033      -3.279     286.611
  O      228.911      -5.676     286.455
  H      228.679      -3.211     285.882
  H      229.848      -2.898     289.770
  H      229.550      -2.502     288.061
  H      230.820      -3.675     288.505
  H      223.625      -0.167     282.295
  H      222.760       0.509     283.653
  H      222.498      -1.156     283.192

 3  4  5  6  7  8  9  10  11  12  13  24  27  28  29  30  32 0
 6-311+G(2d,p)
 ****
 34  35 0
 6-311+G(2d,p)
 ****
 1  2  14  15  16  17  18  19  20  21  22  23  25  26 0
 3-21G
 ****
 31  33  36  37  38  39  40  41  42  43  44  45  46 0
 3-21G
 ****


