%nproc=1
%NoSave
%Mem=1900MB
#P OB98/GEN NMR

erre ene a

0 1
  C       -5.624    -251.299      -9.326
  O       -6.548    -252.156      -9.994
  P       -7.520    -253.071      -9.105
  C       -9.349    -251.251      -9.078
  O       -8.527    -252.114      -8.300
  C      -10.734    -251.884      -9.303
  O      -11.330    -252.180      -8.012
  C      -11.743    -250.988     -10.030
  O      -11.785    -251.035     -11.454
  C      -13.067    -251.566      -9.536
  O      -13.420    -252.718     -10.326
  C      -12.759    -252.000      -8.106
  N      -16.238    -251.068      -4.471
  C      -16.048    -252.126      -5.289
  N      -15.097    -252.294      -6.232
  C      -14.278    -251.233      -6.279
  C      -14.346    -250.085      -5.506
  C      -15.387    -250.018      -4.564
  N      -15.588    -248.937      -3.738
  N      -13.338    -249.208      -5.845
  C      -12.684    -249.810      -6.819
  N      -13.204    -251.041      -7.108
  O       -6.857    -254.133      -8.294
  O       -8.485    -253.722     -10.209
  H      -14.201    -253.118      -9.898
  H       -8.682    -254.643      -9.953
  H      -16.754    -252.944      -5.175
  H      -11.835    -249.392      -7.340
  H      -13.226    -252.960      -7.852
  H      -13.894    -250.857      -9.632
  H      -11.648    -249.946      -9.700
  H      -10.613    -252.828      -9.848
  H       -8.871    -251.061     -10.042
  H      -16.385    -248.951      -3.122
  H      -14.999    -248.123      -3.834
  H       -9.406    -250.294      -8.558
  P      -12.868    -250.197     -12.286
  C      -11.480    -247.984     -12.436
  O      -12.602    -248.660     -11.914
  O      -14.279    -250.640     -12.114
  O      -12.315    -250.305     -13.782
  H      -11.482    -249.829     -13.938
  H      -11.595    -246.914     -12.246
  H      -11.397    -248.143     -13.514
  H      -10.572    -248.335     -11.939
  H       -5.051    -250.758     -10.050
  H       -4.968    -251.887      -8.719
  H       -6.160    -250.609      -8.708

 3  4  5  6  7  8  9  10  11  12  22  25  29  30  31  32 0
 6-311+G(2d,p)
 ****
 33  36  37 0
 6-311+G(2d,p)
 ****
 1  2  13  14  15  16  17  18  19  20  21  23  24  26 0
 3-21G
 ****
 27  28  34  35  38  39  40  41  42  43  44  45  46  47  48 0
 3-21G
 ****


