%nproc=1
%NoSave
%Mem=1900MB
#P OB98/GEN NMR

erre ene a

0 1
  C      557.118    -458.467      19.333
  O      555.934    -458.021      18.699
  H      557.863    -458.683      18.562
  H      556.927    -459.381      19.900
  H      557.518    -457.689      19.991
  P      554.674    -457.635      19.619
  C      553.995    -455.804      17.917
  O      553.618    -457.002      18.586
  C      552.784    -455.202      17.206
  O      552.506    -455.882      15.966
  C      551.475    -455.269      17.984
  O      551.402    -454.359      19.075
  C      550.488    -454.933      16.883
  O      550.529    -453.519      16.611
  C      551.079    -455.748      15.705
  N      550.453    -457.057      15.554
  C      549.323    -457.127      14.729
  O      548.884    -456.115      14.184
  N      548.683    -458.333      14.584
  C      549.119    -459.382      15.223
  N      548.437    -460.557      15.041
  C      550.297    -459.348      16.113
  C      550.908    -458.175      16.230
  O      554.972    -456.809      20.829
  O      553.984    -459.042      19.962
  H      550.136    -453.074      17.382
  H      553.203    -458.859      20.539
  H      550.599    -460.242      16.639
  H      551.778    -458.068      16.872
  H      550.976    -455.192      14.757
  H      549.461    -455.190      17.130
  H      551.281    -456.298      18.325
  H      553.043    -454.161      16.947
  H      547.641    -460.542      14.421
  H      554.788    -456.042      17.205
  H      548.661    -461.396      15.554
  H      554.368    -455.074      18.643
  P      551.199    -454.989      20.542
  C      551.540    -452.665      21.705
  O      550.686    -453.792      21.476
  O      552.697    -455.261      21.032
  O      550.340    -456.217      20.581
  H      552.934    -456.205      20.896
  H      551.044    -451.966      22.346
  H      551.767    -452.194      20.771
  H      552.447    -452.993      22.169

 6  7  8  9  10  11  12  13  14  15  16  26  30  31  32  33  35 0
 6-311+G(2d,p)
 ****
 37  38 0
 6-311+G(2d,p)
 ****
 1  2  3  4  5  17  18  19  20  21  22  23  24  25 0
 3-21G
 ****
 27  28  29  34  36  39  40  41  42  43  44  45  46 0
 3-21G
 ****


