%nproc=1
%NoSave
%Mem=1900MB
#P OB98/GEN NMR

erre ene a

0 1
  C      -35.345      39.212     -17.271
  O      -33.995      39.506     -17.584
  P      -33.255      38.538     -18.631
  C      -31.526      37.906     -16.791
  O      -32.449      37.453     -17.773
  C      -31.755      37.170     -15.474
  O      -33.135      36.769     -15.362
  C      -30.947      35.889     -15.315
  O      -29.591      36.172     -15.008
  C      -31.724      35.205     -14.196
  O      -31.370      35.779     -12.927
  C      -33.177      35.565     -14.551
  N      -35.016      30.792     -14.323
  C      -34.359      31.550     -13.417
  N      -33.882      32.803     -13.559
  C      -34.148      33.275     -14.787
  C      -34.787      32.613     -15.821
  C      -35.237      31.311     -15.554
  N      -35.903      30.541     -16.482
  N      -34.857      33.409     -16.945
  C      -34.279      34.538     -16.591
  N      -33.847      34.512     -15.294
  O      -32.101      39.466     -19.232
  O      -34.139      37.978     -19.702
  H      -30.405      35.667     -12.817
  H      -31.935      39.253     -20.171
  H      -34.197      31.087     -12.447
  H      -34.155      35.399     -17.234
  H      -33.785      35.783     -13.666
  H      -31.533      34.128     -14.135
  H      -31.000      35.287     -16.230
  H      -31.531      37.865     -14.654
  H      -31.666      38.979     -16.625
  H      -36.057      29.570     -16.258
  H      -35.940      30.875     -17.437
  H      -30.508      37.744     -17.159
  P      -28.470      35.494     -15.935
  C      -28.016      33.904     -13.970
  O      -28.335      34.005     -15.346
  O      -27.140      36.202     -15.405
  O      -28.722      35.594     -17.400
  H      -27.080      36.187     -14.434
  H      -28.007      32.848     -13.690
  H      -28.764      34.427     -13.367
  H      -27.024      34.327     -13.783
  H      -35.712      39.930     -16.567
  H      -35.407      38.232     -16.846
  H      -35.935      39.253     -18.163

 3  4  5  6  7  8  9  10  11  12  22  25  29  30  31  32 0
 6-311+G(2d,p)
 ****
 33  36  37 0
 6-311+G(2d,p)
 ****
 1  2  13  14  15  16  17  18  19  20  21  23  24  26 0
 3-21G
 ****
 27  28  34  35  38  39  40  41  42  43  44  45  46  47  48 0
 3-21G
 ****


