%nproc=1
%NoSave
%Mem=1900MB
#P OB98/GEN NMR

erre ene a

0 1
  C     -326.457    -841.339    -164.359
  O     -326.149    -842.074    -163.180
  P     -325.299    -841.328    -162.041
  C     -326.614    -842.403    -160.021
  O     -325.380    -842.268    -160.751
  C     -326.372    -843.230    -158.755
  O     -326.344    -844.633    -159.078
  C     -325.058    -842.946    -158.050
  O     -325.104    -841.740    -157.298
  C     -324.899    -844.206    -157.199
  O     -325.708    -844.114    -156.009
  C     -325.463    -845.285    -158.128
  N     -324.421    -846.055    -158.827
  C     -324.104    -847.292    -158.288
  O     -324.648    -847.753    -157.274
  N     -323.116    -847.995    -158.923
  C     -322.380    -847.547    -159.989
  O     -321.472    -848.198    -160.499
  C     -322.735    -846.217    -160.499
  C     -323.730    -845.544    -159.903
  O     -326.258    -840.090    -161.717
  O     -323.919    -840.969    -162.494
  H     -327.189    -840.293    -161.907
  H     -325.295    -843.432    -155.439
  H     -322.879    -848.908    -158.561
  H     -322.170    -845.832    -161.338
  H     -323.989    -844.554    -160.268
  H     -326.085    -845.990    -157.579
  H     -323.869    -844.372    -156.879
  H     -324.243    -842.887    -158.775
  H     -327.222    -843.063    -158.075
  H     -327.338    -842.900    -160.648
  H     -326.980    -841.407    -159.768
  P     -323.698    -841.027    -156.986
  C     -324.606    -838.579    -156.807
  O     -324.038    -839.699    -156.158
  O     -323.286    -840.493    -158.440
  O     -322.696    -841.943    -156.357
  H     -324.034    -840.103    -158.926
  H     -325.082    -837.945    -156.061
  H     -325.360    -838.889    -157.538
  H     -323.818    -838.006    -157.305
  H     -327.023    -841.955    -165.026
  H     -325.549    -841.035    -164.837
  H     -327.030    -840.474    -164.100

 3  4  5  6  7  8  9  10  11  12  13  24  28  29  30  31  32 0
 6-311+G(2d,p)
 ****
 33  34 0
 6-311+G(2d,p)
 ****
 1  2  14  15  16  17  18  19  20  21  22  23  25  26  27 0
 3-21G
 ****
 35  36  37  38  39  40  41  42  43  44  45 0
 3-21G
 ****


