%nproc=1
%NoSave
%Mem=1900MB
#P OB98/GEN NMR

erre ene a

0 1
  C      718.542    -438.939     -13.348
  O      718.125    -439.632     -14.510
  H      717.674    -438.574     -12.790
  H      719.104    -439.631     -12.714
  H      719.195    -438.103     -13.628
  P      717.188    -438.823     -15.524
  C      715.216    -437.297     -14.798
  O      715.783    -438.596     -14.775
  C      714.082    -437.199     -13.788
  O      714.536    -437.607     -12.481
  C      713.521    -435.790     -13.593
  O      712.631    -435.420     -14.639
  C      712.794    -435.952     -12.263
  O      711.512    -436.577     -12.492
  C      713.714    -436.917     -11.502
  N      713.944    -434.266      -7.108
  C      712.888    -434.787      -7.795
  N      712.905    -435.466      -8.962
  C      714.166    -435.619      -9.404
  C      715.319    -435.146      -8.813
  C      715.187    -434.441      -7.614
  N      716.248    -433.904      -6.925
  N      716.430    -435.503      -9.552
  C      715.951    -436.188     -10.578
  N      714.583    -436.267     -10.538
  O      716.832    -439.897     -16.654
  O      717.798    -437.588     -16.115
  H      711.684    -437.361     -13.049
  H      716.780    -439.448     -17.517
  H      711.915    -434.624      -7.349
  H      716.549    -436.631     -11.366
  H      713.138    -437.691     -10.970
  H      712.613    -435.009     -11.754
  H      714.328    -435.049     -13.468
  H      713.282    -437.885     -14.098
  H      714.825    -437.092     -15.802
  H      716.108    -433.588      -5.977
  H      717.178    -434.050      -7.306
  H      715.996    -436.560     -14.568
  P      712.475    -433.858     -14.955
  C      711.538    -431.859     -13.595
  O      711.543    -433.264     -13.789
  O      711.515    -433.845     -16.235
  O      713.752    -433.127     -15.213
  H      711.656    -433.028     -16.744
  H      710.877    -431.612     -12.791
  H      711.206    -431.376     -14.491
  H      712.527    -431.528     -13.357

 6  7  8  9  10  11  12  13  14  15  25  28  32  33  34  35 0
 6-311+G(2d,p)
 ****
 36  39  40 0
 6-311+G(2d,p)
 ****
 1  2  3  4  5  16  17  18  19  20  21  22  23  24 0
 3-21G
 ****
 26  27  29  30  31  37  38  41  42  43  44  45  46  47  48 0
 3-21G
 ****


