%nproc=1
%NoSave
%Mem=1900MB
#P OB98/GEN NMR

erre ene a

0 1
  C     -381.996     -56.309     359.965
  O     -382.813     -55.304     360.542
  P     -384.059     -54.802     359.650
  C     -385.891     -56.287     360.774
  O     -385.372     -54.989     360.562
  C     -386.715     -56.311     362.076
  O     -385.843     -56.097     363.205
  C     -387.797     -55.221     362.149
  O     -388.951     -55.614     361.456
  C     -388.001     -55.106     363.665
  O     -388.851     -56.142     364.149
  C     -386.561     -55.298     364.183
  N     -384.993     -51.963     367.693
  C     -385.845     -53.056     367.812
  N     -386.319     -53.320     369.043
  N     -386.209     -53.825     366.810
  C     -385.661     -53.404     365.625
  C     -384.834     -52.363     365.362
  C     -384.391     -51.546     366.502
  O     -383.566     -50.657     366.456
  N     -384.517     -52.269     364.044
  C     -385.147     -53.295     363.495
  N     -385.850     -54.021     364.408
  O     -384.204     -55.941     358.535
  O     -383.907     -53.429     359.048
  H     -389.745     -56.078     363.709
  H     -383.770     -55.662     357.683
  H     -384.738     -51.431     368.502
  H     -385.109     -53.552     362.435
  H     -386.542     -55.831     365.147
  H     -388.469     -54.151     363.945
  H     -386.091     -52.759     369.874
  H     -387.412     -54.274     361.764
  H     -386.946     -54.093     369.162
  H     -387.166     -57.311     362.190
  H     -385.066     -56.999     360.884
  H     -386.521     -56.577     359.928
  P     -389.971     -54.488     360.986
  C     -388.657     -54.016     358.779
  O     -389.893     -54.379     359.377
  O     -389.267     -53.123     361.477
  O     -391.358     -54.617     361.550
  H     -389.961     -52.491     361.792
  H     -388.609     -54.484     357.814
  H     -387.796     -54.331     359.376
  H     -388.626     -52.934     358.663
  H     -381.208     -56.561     360.643
  H     -381.577     -55.946     359.050
  H     -382.587     -57.179     359.767

 3  4  5  6  7  8  9  10  11  12  23  26  30  31 0
 6-311+G(2d,p)
 ****
 33  35  36  37  38 0
 6-311+G(2d,p)
 ****
 1  2  13  14  15  16  17  18  19  20  21  22  24  25 0
 3-21G
 ****
 27  28  29  32  34  39  40  41  42  43  44  45  46  47  48  49 0
 3-21G
 ****


