%nproc=1
%NoSave
%Mem=1900MB
#P OB98/GEN NMR

erre ene a

0 1
  C     -100.257     533.001     516.547
  O     -100.511     534.181     517.274
  P     -101.993     534.800     517.306
  C     -101.876     535.164     519.843
  O     -102.096     535.773     518.586
  C     -101.999     536.203     520.965
  O     -103.265     536.892     520.880
  C     -101.957     535.605     522.369
  O     -100.632     535.263     522.734
  C     -102.565     536.737     523.191
  O     -101.574     537.743     523.479
  C     -103.624     537.291     522.223
  N     -107.804     538.190     525.015
  C     -106.554     538.728     525.047
  N     -105.489     538.408     524.293
  C     -105.788     537.398     523.450
  C     -106.997     536.726     523.346
  C     -108.051     537.175     524.156
  N     -109.323     536.664     524.093
  N     -106.891     535.719     522.392
  C     -105.658     535.782     521.959
  N     -104.966     536.816     522.519
  O     -103.100     533.804     517.170
  O     -102.003     535.827     516.072
  H     -101.996     538.408     524.038
  H     -102.688     535.558     515.433
  H     -106.416     539.537     525.760
  H     -105.217     535.120     521.219
  H     -103.647     538.396     522.233
  H     -102.974     536.391     524.141
  H     -102.614     534.722     522.424
  H     -101.193     536.937     520.836
  H     -100.885     534.724     519.861
  H     -110.036     537.168     524.617
  H     -109.597     536.146     523.267
  H     -102.626     534.352     520.000
  P     -100.280     533.742     523.146
  C      -97.824     533.972     522.422
  O      -98.714     533.710     523.490
  O     -100.760     532.688     522.188
  O     -100.976     533.591     524.583
  H     -101.261     532.664     524.693
  H      -97.749     533.072     521.792
  H      -96.853     534.207     522.823
  H      -98.186     534.808     521.801
  H      -99.223     532.740     516.640
  H     -100.494     533.160     515.516
  H     -100.861     532.207     516.934

 3  4  5  6  7  8  9  10  11  12  22  25  29  30  31  32 0
 6-311+G(2d,p)
 ****
 33  36  37 0
 6-311+G(2d,p)
 ****
 1  2  13  14  15  16  17  18  19  20  21  23  24  26 0
 3-21G
 ****
 27  28  34  35  38  39  40  41  42  43  44  45  46  47  48 0
 3-21G
 ****


