%nproc=1
%NoSave
%Mem=1900MB
#P OB98/GEN NMR

erre ene a

0 1
  C       86.103      17.972     212.933
  O       85.186      17.061     212.313
  P       83.624      17.409     212.374
  C       82.734      16.177     210.264
  O       82.819      16.209     211.680
  C       82.434      14.754     209.781
  O       83.590      13.896     209.896
  C       81.324      14.066     210.564
  O       80.036      14.439     210.091
  C       81.593      12.607     210.233
  O       81.058      12.294     208.931
  C       83.125      12.558     210.208
  N       84.709       8.557     212.867
  C       84.188       8.628     211.590
  N       84.082       7.460     210.918
  N       83.809       9.741     211.021
  C       83.991      10.831     211.802
  C       84.493      10.890     213.082
  C       84.897       9.649     213.706
  O       85.351       9.524     214.837
  N       84.518      12.176     213.551
  C       84.049      12.899     212.552
  N       83.699      12.127     211.472
  O       83.480      18.594     211.306
  O       83.138      17.822     213.724
  H       80.094      12.439     208.983
  H       82.730      19.168     211.546
  H       84.982       7.672     213.258
  H       83.946      13.976     212.560
  H       83.511      11.887     209.433
  H       81.118      11.923     210.942
  H       84.402       6.574     211.276
  H       81.434      14.235     211.642
  H       83.734       7.496     209.968
  H       82.146      14.808     208.723
  H       83.668      16.530     209.818
  H       81.964      16.882     209.938
  P       78.840      14.514     211.157
  C       77.818      16.708     210.219
  O       77.659      15.321     210.440
  O       79.404      15.538     212.251
  O       78.464      13.207     211.766
  H       79.051      15.313     213.131
  H       77.001      17.056     209.583
  H       78.766      16.915     209.716
  H       77.778      17.247     211.170
  H       87.102      17.610     212.812
  H       85.876      18.052     213.976
  H       86.015      18.935     212.474

 3  4  5  6  7  8  9  10  11  12  23  26  30  31 0
 6-311+G(2d,p)
 ****
 33  35  36  37  38 0
 6-311+G(2d,p)
 ****
 1  2  13  14  15  16  17  18  19  20  21  22  24  25 0
 3-21G
 ****
 27  28  29  32  34  39  40  41  42  43  44  45  46  47  48  49 0
 3-21G
 ****


