%nproc=1
%NoSave
%Mem=1900MB
#P OB98/GEN NMR

erre ene a

0 1
  C     -101.120      96.209      30.772
  O     -100.150      97.032      31.385
  H     -100.730      95.196      30.649
  H     -102.007      96.171      31.411
  H     -101.405      96.619      29.799
  P      -98.760      97.198      30.600
  C      -98.343      99.752      30.603
  O      -98.040      98.502      31.205
  C      -99.576     100.365      31.263
  O      -99.272     100.595      32.664
  C     -100.020     101.702      30.645
  O     -101.421     101.678      30.349
  C      -99.774     102.718      31.744
  O     -100.735     103.767      31.755
  C      -99.836     101.867      33.005
  N     -100.147     105.311      36.751
  C     -101.104     104.651      36.064
  N     -100.956     103.675      35.146
  C      -99.657     103.369      34.984
  C      -98.572     103.938      35.630
  C      -98.855     104.971      36.539
  N      -97.876     105.682      37.198
  N      -97.389     103.369      35.196
  C      -97.752     102.503      34.272
  N      -99.111     102.479      34.099
  O      -99.220      97.664      29.137
  O      -97.927      95.963      30.545
  H     -101.617     103.353      31.782
  H      -98.924      96.998      28.488
  H     -102.127     104.953      36.274
  H      -97.077     101.906      33.671
  H     -100.871     101.699      33.332
  H      -98.780     103.158      31.607
  H      -99.461     101.951      29.737
  H     -100.394      99.636      31.226
  H      -98.545      99.606      29.536
  H      -98.161     106.481      37.741
  H      -96.911     105.506      36.959
  H      -97.481     100.418      30.709
  P     -101.838     101.019      28.941
  C     -103.817      99.624      29.882
  O     -103.404     100.664      29.004
  O     -101.113      99.594      28.978
  O     -101.412     101.817      27.755
  H     -100.533      99.494      28.199
  H     -104.878      99.502      29.817
  H     -103.548      99.877      30.886
  H     -103.335      98.710      29.604

 6  7  8  9  10  11  12  13  14  15  25  28  32  33  34  35 0
 6-311+G(2d,p)
 ****
 36  39  40 0
 6-311+G(2d,p)
 ****
 1  2  3  4  5  16  17  18  19  20  21  22  23  24 0
 3-21G
 ****
 26  27  29  30  31  37  38  41  42  43  44  45  46  47  48 0
 3-21G
 ****


