%nproc=1
%NoSave
%Mem=1900MB
#P OB98/GEN NMR

erre ene a

0 1
  C     -747.280     427.064    -583.508
  O     -747.349     428.450    -583.231
  H     -748.215     426.757    -583.991
  H     -747.163     426.496    -582.578
  H     -746.453     426.849    -584.187
  P     -746.126     429.141    -582.465
  C     -746.439     431.292    -583.860
  O     -746.359     430.726    -582.558
  C     -746.782     432.785    -583.774
  O     -748.068     432.904    -583.111
  C     -745.748     433.579    -582.962
  O     -745.234     434.714    -583.659
  C     -746.460     433.828    -581.635
  O     -746.022     434.974    -580.939
  C     -747.940     433.851    -582.037
  N     -748.854     433.517    -580.949
  C     -749.073     434.489    -579.974
  O     -748.579     435.618    -579.980
  N     -749.922     434.134    -578.959
  C     -750.545     432.929    -578.813
  O     -751.308     432.670    -577.894
  C     -750.258     431.932    -579.855
  C     -749.436     432.265    -580.859
  O     -744.763     428.685    -582.866
  O     -746.416     428.828    -580.918
  H     -746.504     435.017    -580.094
  H     -745.833     428.104    -580.618
  H     -750.101     434.838    -578.259
  H     -750.727     430.963    -579.777
  H     -749.203     431.559    -581.654
  H     -748.223     434.830    -582.413
  H     -746.278     432.965    -580.981
  H     -744.856     432.974    -582.773
  H     -746.891     433.180    -584.791
  H     -747.217     430.751    -584.414
  H     -745.480     431.163    -584.375
  P     -743.806     434.780    -584.363
  C     -744.766     436.776    -585.763
  O     -743.659     436.206    -585.073
  O     -743.422     433.579    -585.166
  O     -742.784     434.877    -583.113
  H     -741.967     434.411    -583.379
  H     -744.483     437.724    -586.170
  H     -745.580     436.909    -585.082
  H     -745.067     436.123    -586.555

 6  7  8  9  10  11  12  13  14  15  16  26  31  32  33  34  35 0
 6-311+G(2d,p)
 ****
 36  37 0
 6-311+G(2d,p)
 ****
 1  2  3  4  5  17  18  19  20  21  22  23  24  25 0
 3-21G
 ****
 27  28  29  30  38  39  40  41  42  43  44  45 0
 3-21G
 ****


