%nproc=1
%NoSave
%Mem=1900MB
#P OB98/GEN NMR

erre ene a

0 1
  C      679.626    -693.844    1533.181
  O      680.354    -692.619    1533.108
  P      680.153    -691.608    1531.873
  C      680.397    -691.849    1529.329
  O      680.748    -692.384    1530.598
  C      681.417    -692.323    1528.275
  O      681.484    -693.785    1528.312
  C      681.081    -691.974    1526.818
  O      681.476    -690.668    1526.409
  C      681.924    -693.019    1526.088
  O      683.298    -692.585    1526.057
  C      681.772    -694.257    1526.978
  N      680.544    -697.953    1523.678
  C      681.706    -697.284    1523.909
  N      681.932    -696.291    1524.778
  C      680.851    -696.036    1525.516
  C      679.600    -696.638    1525.400
  C      679.445    -697.633    1524.426
  N      678.292    -698.327    1524.226
  N      678.704    -696.112    1526.327
  C      679.406    -695.196    1526.979
  N      680.703    -695.131    1526.536
  O      680.690    -690.237    1532.108
  O      678.567    -691.626    1531.606
  H      683.303    -691.644    1525.762
  H      678.311    -690.862    1531.055
  H      682.536    -697.566    1523.271
  H      679.043    -694.575    1527.774
  H      682.696    -694.846    1527.044
  H      681.624    -693.151    1525.051
  H      680.023    -692.158    1526.599
  H      682.419    -691.940    1528.545
  H      680.440    -690.743    1529.394
  H      678.323    -699.119    1523.578
  H      677.526    -698.221    1524.903
  H      679.392    -692.155    1529.051
  P      680.545    -689.907    1525.331
  C      679.444    -690.711    1523.092
  O      680.457    -690.912    1524.083
  O      680.971    -688.514    1525.033
  O      679.093    -690.010    1526.001
  H      678.721    -690.929    1526.050
  H      679.656    -691.387    1522.268
  H      679.453    -689.674    1522.732
  H      678.470    -690.975    1523.520
  H      679.900    -694.369    1534.072
  H      679.855    -694.446    1532.327
  H      678.577    -693.635    1533.199

 3  4  5  6  7  8  9  10  11  12  22  25  29  30  31  32 0
 6-311+G(2d,p)
 ****
 33  36  37 0
 6-311+G(2d,p)
 ****
 1  2  13  14  15  16  17  18  19  20  21  23  24  26 0
 3-21G
 ****
 27  28  34  35  38  39  40  41  42  43  44  45  46  47  48 0
 3-21G
 ****


