%nproc=1
%NoSave
%Mem=1900MB
#P OB98/GEN NMR

erre ene a

0 1
  C      204.342    -104.625    -248.131
  O      204.413    -104.355    -246.746
  H      203.855    -103.785    -248.630
  H      203.753    -105.529    -248.311
  H      205.346    -104.749    -248.542
  P      205.045    -105.498    -245.815
  C      207.240    -104.110    -245.740
  O      206.638    -105.378    -245.959
  C      208.464    -104.273    -244.845
  O      208.086    -104.911    -243.603
  C      209.555    -105.154    -245.439
  O      210.331    -104.472    -246.405
  C      210.346    -105.510    -244.190
  O      211.292    -104.482    -243.857
  C      209.242    -105.618    -243.115
  N      208.936    -107.004    -242.778
  C      208.978    -107.318    -241.424
  O      209.256    -106.497    -240.549
  N      208.729    -108.626    -241.105
  C      208.485    -109.632    -241.993
  O      208.340    -110.799    -241.647
  C      208.437    -109.237    -243.411
  C      208.671    -107.962    -243.735
  O      204.690    -106.845    -246.606
  O      204.542    -105.519    -244.411
  H      203.938    -107.293    -246.177
  H      211.798    -104.815    -243.091
  H      208.767    -108.876    -240.129
  H      208.240    -110.010    -244.141
  H      208.662    -107.652    -244.775
  H      209.558    -105.109    -242.194
  H      210.913    -106.430    -244.325
  H      209.116    -106.071    -245.852
  H      208.860    -103.273    -244.611
  H      206.522    -103.446    -245.247
  H      207.516    -103.676    -246.706
  P      210.994    -105.321    -247.593
  C      208.789    -105.154    -249.012
  O      209.782    -105.971    -248.421
  O      211.618    -106.551    -246.784
  O      211.967    -104.546    -248.414
  H      211.070    -106.824    -246.027
  H      208.074    -105.770    -249.516
  H      209.246    -104.490    -249.716
  H      208.297    -104.585    -248.252

 6  7  8  9  10  11  12  13  14  15  16  27  31  32  33  34  35 0
 6-311+G(2d,p)
 ****
 36  37 0
 6-311+G(2d,p)
 ****
 1  2  3  4  5  17  18  19  20  21  22  23  24  25 0
 3-21G
 ****
 26  28  29  30  38  39  40  41  42  43  44  45 0
 3-21G
 ****


