%nproc=1
%NoSave
%Mem=1900MB
#P OB98/GEN NMR

erre ene a

0 1
  C      105.171     -61.030     -46.893
  O      104.507     -60.536     -45.732
  P      103.319     -59.470     -45.749
  C      104.430     -57.252     -44.899
  O      103.953     -58.022     -45.993
  C      105.157     -55.969     -45.335
  O      106.427     -56.316     -45.946
  C      104.349     -55.230     -46.403
  O      103.296     -54.365     -46.025
  C      105.396     -54.579     -47.296
  O      105.680     -53.232     -46.916
  C      106.630     -55.463     -47.092
  N      109.950     -56.459     -50.855
  C      109.997     -55.476     -49.887
  N      111.033     -54.614     -49.953
  N      109.099     -55.340     -48.948
  C      108.072     -56.212     -49.049
  C      107.902     -57.216     -49.974
  C      108.932     -57.396     -50.975
  O      108.945     -58.258     -51.848
  N      106.723     -57.888     -49.777
  C      106.168     -57.276     -48.751
  N      106.953     -56.253     -48.268
  O      102.324     -59.596     -44.645
  O      102.555     -59.790     -47.133
  H      105.930     -53.232     -45.975
  H      101.609     -59.592     -46.981
  H      110.681     -56.533     -51.540
  H      105.210     -57.534     -48.317
  H      107.518     -54.857     -46.873
  H      105.046     -54.541     -48.335
  H      111.690     -54.591     -50.718
  H      103.869     -55.996     -47.026
  H      110.957     -53.768     -49.385
  H      105.402     -55.347     -44.470
  H      105.103     -57.897     -44.327
  H      103.604     -56.999     -44.233
  P      101.747     -54.542     -46.391
  C      101.819     -53.499     -48.729
  O      101.628     -54.685     -47.980
  O      101.119     -53.095     -46.122
  O      101.028     -55.589     -45.605
  H      100.147     -53.152     -46.064
  H      101.418     -53.646     -49.735
  H      102.887     -53.278     -48.801
  H      101.303     -52.654     -48.261
  H      105.925     -61.731     -46.601
  H      105.625     -60.216     -47.418
  H      104.461     -61.514     -47.531

 3  4  5  6  7  8  9  10  11  12  23  26  30  31 0
 6-311+G(2d,p)
 ****
 33  35  36  37  38 0
 6-311+G(2d,p)
 ****
 1  2  13  14  15  16  17  18  19  20  21  22  24  25 0
 3-21G
 ****
 27  28  29  32  34  39  40  41  42  43  44  45  46  47  48  49 0
 3-21G
 ****


