%nproc=1
%NoSave
%Mem=1900MB
#P OB98/GEN NMR

erre ene a

0 1
  C     -142.769     142.430     527.431
  O     -144.179     142.397     527.305
  H     -142.419     141.427     527.690
  H     -142.463     143.124     528.218
  H     -142.318     142.722     526.480
  P     -144.961     143.799     527.205
  C     -145.438     143.733     524.670
  O     -145.990     143.623     525.982
  C     -146.368     143.111     523.625
  O     -146.657     141.735     523.951
  C     -147.726     143.789     523.524
  O     -147.698     145.104     523.030
  C     -148.543     142.732     522.789
  O     -148.346     142.782     521.377
  C     -147.941     141.425     523.363
  N     -148.829     140.778     524.322
  C     -150.133     140.551     523.892
  O     -150.547     140.885     522.776
  N     -150.964     139.954     524.793
  C     -150.637     139.613     526.075
  O     -151.444     139.091     526.846
  C     -149.263     139.912     526.487
  C     -148.429     140.473     525.608
  O     -144.092     145.017     527.101
  O     -145.920     143.794     528.486
  H     -148.922     142.103     520.983
  H     -146.269     144.701     528.670
  H     -151.907     139.762     524.495
  H     -148.972     139.667     527.504
  H     -147.403     140.703     525.889
  H     -147.743     140.713     522.552
  H     -149.612     142.840     522.973
  H     -148.148     143.855     524.536
  H     -145.847     143.122     522.659
  H     -144.484     143.199     524.667
  H     -145.254     144.787     524.438
  P     -148.913     146.133     523.172
  C     -147.217     148.080     522.746
  O     -148.494     147.514     522.474
  O     -149.578     146.195     524.507
  O     -149.977     145.531     522.118
  H     -150.868     145.701     522.483
  H     -147.108     148.993     522.199
  H     -146.452     147.393     522.449
  H     -147.131     148.279     523.794

 6  7  8  9  10  11  12  13  14  15  16  26  31  32  33  34  35 0
 6-311+G(2d,p)
 ****
 36  37 0
 6-311+G(2d,p)
 ****
 1  2  3  4  5  17  18  19  20  21  22  23  24  25 0
 3-21G
 ****
 27  28  29  30  38  39  40  41  42  43  44  45 0
 3-21G
 ****


