%nproc=1
%NoSave
%Mem=1900MB
#P OB98/GEN NMR

erre ene a

0 1
  C       27.581     -62.098      36.653
  O       26.857     -61.441      37.675
  H       28.164     -62.907      37.102
  H       28.269     -61.404      36.162
  H       26.895     -62.527      35.918
  P       25.980     -60.159      37.287
  C       27.856     -58.599      38.151
  O       27.015     -58.957      37.059
  C       28.823     -57.490      37.743
  O       29.719     -57.959      36.715
  C       28.146     -56.251      37.170
  O       27.549     -55.487      38.199
  C       29.319     -55.592      36.464
  O       30.163     -54.904      37.400
  C       30.049     -56.826      35.876
  N       29.706     -57.096      34.482
  C       30.406     -56.356      33.522
  O       31.244     -55.524      33.870
  N       30.119     -56.571      32.196
  C       29.251     -57.470      31.854
  N       29.017     -57.635      30.525
  C       28.516     -58.293      32.834
  C       28.781     -58.049      34.117
  O       24.845     -59.831      38.208
  O       25.464     -60.479      35.805
  H       30.851     -54.457      36.867
  H       24.580     -60.891      35.832
  H       27.807     -59.038      32.505
  H       28.284     -58.611      34.901
  H       31.137     -56.693      35.938
  H       28.999     -54.859      35.723
  H       27.404     -56.538      36.414
  H       29.434     -57.235      38.620
  H       29.560     -57.060      29.890
  H       28.412     -59.499      38.436
  H       28.490     -58.407      30.142
  H       27.256     -58.278      39.011
  P       26.262     -54.569      37.926
  C       27.853     -52.699      37.163
  O       26.721     -53.489      36.830
  O       25.622     -53.996      39.144
  O       25.291     -55.523      37.083
  H       24.845     -56.175      37.680
  H       28.063     -52.021      36.362
  H       28.698     -53.336      37.321
  H       27.651     -52.145      38.056

 6  7  8  9  10  11  12  13  14  15  16  26  30  31  32  33  35 0
 6-311+G(2d,p)
 ****
 37  38 0
 6-311+G(2d,p)
 ****
 1  2  3  4  5  17  18  19  20  21  22  23  24  25 0
 3-21G
 ****
 27  28  29  34  36  39  40  41  42  43  44  45  46 0
 3-21G
 ****


