%nproc=1
%NoSave
%Mem=1900MB
#P OB98/GEN NMR

erre ene a

0 1
  C       14.222     -12.840      42.439
  O       15.041     -12.562      41.307
  P       16.042     -13.714      40.816
  C       18.161     -12.775      42.043
  O       17.225     -13.825      41.892
  C       19.270     -13.163      43.038
  O       20.276     -12.118      43.036
  C       18.826     -13.294      44.491
  O       19.809     -14.049      45.204
  C       18.863     -11.855      44.955
  O       18.887     -11.761      46.377
  C       20.107     -11.303      44.224
  N       19.991      -9.877      43.850
  C       20.824      -8.956      44.480
  O       21.656      -9.256      45.335
  N       20.651      -7.646      44.126
  C       19.775      -7.178      43.195
  O       19.599      -5.985      42.980
  C       19.021      -8.202      42.462
  C       19.152      -9.479      42.823
  O       16.740     -13.079      39.526
  O       15.364     -15.006      40.510
  H       17.955     -11.863      46.679
  H       16.382     -13.483      38.715
  H       21.201      -6.961      44.624
  H       18.363      -7.874      41.667
  H       18.585     -10.248      42.303
  H       21.006     -11.403      44.846
  H       17.965     -11.333      44.610
  H       17.839     -13.744      44.626
  H       19.752     -14.086      42.696
  H       17.652     -11.868      42.378
  H       18.611     -12.541      41.072
  P       19.609     -15.637      45.306
  C       17.914     -15.612      47.237
  O       18.123     -15.869      45.862
  O       20.688     -16.389      46.009
  O       19.479     -16.080      43.770
  H       19.652     -17.035      43.689
  H       16.877     -15.297      47.382
  H       18.579     -14.825      47.604
  H       18.090     -16.529      47.805
  H       13.609     -11.990      42.653
  H       14.842     -13.054      43.284
  H       13.600     -13.685      42.230

 3  4  5  6  7  8  9  10  11  12  13  23  28  29  30  31  32 0
 6-311+G(2d,p)
 ****
 33  34 0
 6-311+G(2d,p)
 ****
 1  2  14  15  16  17  18  19  20  21  22  24  25  26  27 0
 3-21G
 ****
 35  36  37  38  39  40  41  42  43  44  45 0
 3-21G
 ****


