%nproc=1
%NoSave
%Mem=1900MB
#P OB98/GEN NMR

erre ene a

0 1
  C        8.880       4.027       3.040
  O        7.614       3.461       3.305
  H        8.924       5.018       3.500
  H        9.031       4.132       1.963
  H        9.668       3.403       3.468
  P        7.317       2.020       2.665
  C        6.720       1.155       0.290
  O        7.182       2.240       1.082
  C        7.166       1.351      -1.155
  O        8.599       1.193      -1.253
  C        6.578       0.340      -2.128
  O        5.241       0.647      -2.481
  C        7.541       0.473      -3.296
  O        7.185       1.572      -4.150
  C        8.888       0.734      -2.589
  N        9.747      -0.445      -2.589
  C        9.558      -1.329      -3.647
  O        8.726      -1.149      -4.535
  N       10.335      -2.454      -3.632
  C       11.235      -2.792      -2.663
  O       11.847      -3.852      -2.671
  C       11.403      -1.813      -1.577
  C       10.656      -0.706      -1.584
  O        5.818       1.717       3.138
  O        8.264       0.941       3.070
  H        5.825       1.083       3.878
  H        6.746       2.230      -3.578
  H       10.205      -3.112      -4.384
  H       12.114      -2.047      -0.795
  H       10.748       0.021      -0.783
  H        9.430       1.546      -3.090
  H        7.543      -0.422      -3.918
  H        6.658      -0.673      -1.718
  H        6.912       2.375      -1.460
  H        5.627       1.117       0.325
  H        7.118       0.221       0.699
  P        4.303      -0.533      -3.026
  C        4.294      -2.003      -5.202
  O        4.894      -0.964      -4.453
  O        2.969       0.272      -3.383
  O        4.124      -1.653      -2.058
  H        3.144       1.163      -3.729
  H        4.831      -2.139      -6.118
  H        3.278      -1.746      -5.419
  H        4.319      -2.911      -4.636

 6  7  8  9  10  11  12  13  14  15  16  27  31  32  33  34  35 0
 6-311+G(2d,p)
 ****
 36  37 0
 6-311+G(2d,p)
 ****
 1  2  3  4  5  17  18  19  20  21  22  23  24  25 0
 3-21G
 ****
 26  28  29  30  38  39  40  41  42  43  44  45 0
 3-21G
 ****


