%nproc=1
%NoSave
%Mem=1900MB
#P OB98/GEN NMR

erre ene a

0 1
  C       81.030     -93.803     106.443
  O       80.293     -92.685     105.979
  H       81.511     -93.535     107.387
  H       81.804     -94.074     105.717
  H       80.360     -94.649     106.616
  P       79.531     -92.860     104.576
  C       77.343     -92.247     105.813
  O       78.013     -93.187     104.982
  C       76.580     -92.971     106.925
  O       77.488     -93.743     107.729
  C       75.841     -92.044     107.886
  O       74.577     -91.672     107.347
  C       75.683     -92.954     109.102
  O       74.559     -93.839     108.901
  C       76.993     -93.759     109.098
  N       79.601     -94.573     113.447
  C       78.501     -95.168     112.935
  N       77.828     -94.863     111.805
  C       78.406     -93.831     111.166
  C       79.535     -93.129     111.568
  C       80.147     -93.537     112.765
  N       81.270     -92.925     113.292
  N       79.835     -92.127     110.663
  C       78.948     -92.272     109.700
  N       78.034     -93.263     109.977
  O       80.173     -93.802     103.605
  O       79.440     -91.337     104.085
  H       73.837     -93.297     108.526
  H       79.226     -90.748     104.835
  H       78.100     -96.004     113.520
  H       78.928     -91.700     108.781
  H       76.821     -94.810     109.372
  H       75.484     -92.396     110.017
  H       76.445     -91.172     108.162
  H       75.883     -93.682     106.453
  H       76.642     -91.644     105.217
  H       81.521     -93.156     114.235
  H       81.592     -92.077     112.845
  H       78.099     -91.580     106.238
  P       74.315     -90.187     106.799
  C       73.160     -90.601     104.532
  O       74.392     -90.306     105.202
  O       75.183     -89.137     107.415
  O       72.752     -89.941     107.062
  H       72.554     -88.984     107.012
  H       73.332     -90.656     103.477
  H       72.448     -89.829     104.738
  H       72.780     -91.538     104.881

 6  7  8  9  10  11  12  13  14  15  25  28  32  33  34  35 0
 6-311+G(2d,p)
 ****
 36  39  40 0
 6-311+G(2d,p)
 ****
 1  2  3  4  5  16  17  18  19  20  21  22  23  24 0
 3-21G
 ****
 26  27  29  30  31  37  38  41  42  43  44  45  46  47 0
 3-21G
 ****
 48 0
 3-21G
 ****


