%nproc=1
%NoSave
%Mem=1900MB
#P OB98/GEN NMR

erre ene a

0 1
  C      -21.997    -172.741       1.512
  O      -22.011    -173.106       2.889
  P      -20.836    -172.647       3.878
  C      -22.334    -171.944       5.852
  O      -21.479    -171.502       4.794
  C      -23.573    -171.053       5.924
  O      -24.324    -171.206       4.691
  C      -24.571    -171.395       7.041
  O      -24.255    -170.829       8.307
  C      -25.835    -170.740       6.494
  O      -25.793    -169.317       6.729
  C      -25.729    -171.030       4.999
  N      -30.190    -172.836       3.233
  C      -29.756    -171.570       3.494
  N      -28.558    -171.178       3.974
  C      -27.753    -172.234       4.155
  C      -28.054    -173.575       3.938
  C      -29.341    -173.861       3.454
  N      -29.769    -175.146       3.170
  N      -26.964    -174.377       4.268
  C      -26.037    -173.534       4.658
  N      -26.460    -172.232       4.607
  O      -19.554    -172.293       3.195
  O      -20.680    -173.874       4.898
  H      -26.698    -168.978       6.566
  H      -19.823    -173.811       5.367
  H      -30.474    -170.778       3.287
  H      -25.048    -173.815       4.988
  H      -26.097    -170.198       4.379
  H      -26.748    -171.114       6.974
  H      -24.729    -172.478       7.117
  H      -23.247    -170.007       5.999
  H      -21.778    -171.874       6.792
  H      -30.653    -175.243       2.702
  H      -29.082    -175.886       3.177
  H      -22.609    -172.995       5.692
  P      -23.510    -171.777       9.364
  C      -21.815    -169.941      10.164
  O      -22.029    -171.186       9.517
  O      -23.595    -173.242       9.061
  O      -24.217    -171.370      10.752
  H      -24.027    -170.472      11.061
  H      -20.738    -169.805      10.305
  H      -22.305    -169.924      11.155
  H      -22.203    -169.130       9.544
  H      -22.863    -173.142       1.028
  H      -21.115    -173.132       1.048
  H      -22.002    -171.675       1.426

 3  4  5  6  7  8  9  10  11  12  22  25  29  30  31  32 0
 6-311+G(2d,p)
 ****
 33  36  37 0
 6-311+G(2d,p)
 ****
 1  2  13  14  15  16  17  18  19  20  21  23  24  26 0
 3-21G
 ****
 27  28  34  35  38  39  40  41  42  43  44  45  46  47  48 0
 3-21G
 ****


