%nproc=1
%NoSave
%Mem=1900MB
#P OB98/GEN NMR

erre ene a

0 1
  C       46.515    -145.600     289.323
  O       47.665    -146.447     289.238
  P       47.499    -147.837     288.452
  C       50.046    -148.024     287.944
  O       48.891    -148.626     288.516
  C       51.310    -148.552     288.628
  O       51.294    -148.277     290.040
  C       51.463    -150.060     288.518
  O       51.939    -150.419     287.234
  C       52.444    -150.364     289.644
  O       53.808    -150.299     289.194
  C       52.152    -149.244     290.670
  N       51.565    -149.750     291.902
  C       52.064    -149.201     293.086
  O       52.964    -148.359     293.052
  N       51.548    -149.641     294.280
  C       50.637    -150.563     294.289
  N       50.167    -150.963     295.503
  C       50.103    -151.187     293.061
  C       50.608    -150.740     291.912
  O       47.401    -147.380     286.921
  O       46.302    -148.628     288.870
  H       53.928    -151.074     288.607
  H       46.820    -147.986     286.425
  H       49.349    -151.958     293.119
  H       50.275    -151.140     290.960
  H       53.078    -148.715     290.932
  H       52.291    -151.368     290.046
  H       50.502    -150.550     288.721
  H       52.182    -148.053     288.180
  H       50.558    -150.517     296.322
  H       49.995    -146.938     288.048
  H       49.465    -151.677     295.626
  H       50.062    -148.237     286.870
  P       50.943    -151.219     286.266
  C       52.110    -149.684     284.570
  O       51.484    -150.934     284.783
  O       49.624    -150.307     286.316
  O       50.651    -152.640     286.607
  H       48.898    -150.741     285.835
  H       52.610    -149.702     283.599
  H       52.856    -149.487     285.346
  H       51.358    -148.890     284.563
  H       46.764    -144.714     289.869
  H       45.726    -146.119     289.826
  H       46.195    -145.333     288.337

 3  4  5  6  7  8  9  10  11  12  13  21  23  27  28  29  30  32 0
 6-311+G(2d,p)
 ****
 34  35 0
 6-311+G(2d,p)
 ****
 1  2  14  15  16  17  18  19  20  22  24  25  26 0
 3-21G
 ****
 31  33  36  37  38  39  40  41  42  43  44  45  46 0
 3-21G
 ****


