%nproc=1
%NoSave
%Mem=1900MB
#P OB98/GEN NMR

erre ene a

0 1
  C      -95.224    -747.262    -322.593
  O      -96.266    -747.124    -323.545
  H      -95.257    -746.403    -321.920
  H      -94.258    -747.269    -323.106
  H      -95.342    -748.176    -322.011
  P      -96.650    -748.387    -324.455
  C      -98.925    -748.861    -323.323
  O      -97.607    -749.332    -323.573
  C      -99.903    -750.033    -323.175
  O      -99.443    -750.898    -322.110
  C     -101.305    -749.547    -322.789
  O     -102.323    -750.436    -323.253
  C     -101.268    -749.590    -321.268
  O     -102.566    -749.680    -320.674
  C     -100.387    -750.806    -321.016
  N     -100.705    -750.602    -315.933
  C     -101.703    -750.448    -316.875
  N     -102.951    -750.200    -316.396
  N     -101.493    -750.496    -318.165
  C     -100.186    -750.667    -318.498
  C      -99.110    -750.816    -317.649
  C      -99.362    -750.792    -316.226
  O      -98.511    -750.908    -315.344
  N      -97.939    -750.966    -318.358
  C      -98.314    -750.907    -319.620
  N      -99.668    -750.751    -319.758
  O      -95.289    -749.238    -324.513
  O      -97.160    -748.063    -325.827
  H     -102.459    -749.489    -319.722
  H      -95.291    -749.820    -325.294
  H     -100.930    -750.585    -314.952
  H      -97.636    -750.978    -320.470
  H     -100.984    -751.727    -321.016
  H     -100.815    -748.654    -320.913
  H     -103.111    -749.965    -315.430
  H     -101.519    -748.540    -323.148
  H     -103.612    -749.786    -317.060
  H      -99.904    -750.635    -324.098
  H      -99.204    -748.227    -324.171
  H      -98.938    -748.233    -322.427
  P     -102.722    -750.401    -324.809
  C     -101.057    -752.162    -325.878
  O     -101.463    -750.821    -325.694
  O     -102.903    -748.847    -325.123
  O     -103.956    -751.187    -325.150
  H     -103.834    -748.652    -325.355
  H     -100.192    -752.190    -326.508
  H     -101.850    -752.715    -326.336
  H     -100.821    -752.597    -324.929

 6  7  8  9  10  11  12  13  14  15  26  29  33  34 0
 6-311+G(2d,p)
 ****
 36  38  39  40  41 0
 6-311+G(2d,p)
 ****
 1  2  3  4  5  16  17  18  19  20  21  22  23  24  25 0
 3-21G
 ****
 27  28  30  31  32  35  37  42  43  44  45  46  47 0
 3-21G
 ****
 48  49 0
 3-21G
 ****


