%nproc=1
%NoSave
%Mem=1900MB
#P OB98/GEN NMR

erre ene a

0 1
  C      160.789      68.928     149.564
  O      161.254      69.823     148.569
  P      160.527      71.228     148.327
  C      162.298      72.754     149.382
  O      160.987      72.219     149.508
  C      162.264      74.203     148.898
  O      161.597      75.027     149.898
  C      163.646      74.827     148.640
  O      163.494      75.734     147.543
  C      163.899      75.616     149.917
  O      164.870      76.643     149.752
  C      162.487      76.116     150.211
  N      162.480      80.043     153.498
  C      162.747      79.981     152.173
  N      162.753      78.889     151.373
  C      162.442      77.785     152.074
  C      162.174      77.692     153.432
  C      162.187      78.899     154.156
  N      161.880      78.989     155.500
  N      161.957      76.372     153.792
  C      162.089      75.690     152.671
  N      162.315      76.505     151.601
  O      159.050      71.150     148.115
  O      161.267      71.829     147.041
  H      164.520      77.297     149.118
  H      160.682      71.762     146.260
  H      162.978      80.926     151.687
  H      162.032      74.610     152.580
  H      162.215      76.971     149.584
  H      164.253      74.937     150.703
  H      164.432      74.097     148.433
  H      161.652      74.244     147.989
  H      162.841      72.142     148.656
  H      161.788      79.916     155.888
  H      161.410      78.206     155.951
  H      162.817      72.691     150.345
  P      164.753      76.071     146.603
  C      163.644      74.459     144.950
  O      164.862      74.879     145.545
  O      166.015      76.411     147.329
  O      164.230      77.302     145.711
  H      164.995      77.763     145.316
  H      163.119      73.786     145.638
  H      163.864      73.920     144.023
  H      163.003      75.313     144.721
  H      161.403      68.051     149.570
  H      159.777      68.653     149.352
  H      160.836      69.403     150.522

 3  4  5  6  7  8  9  10  11  12  22  25  29  30  31  32 0
 6-311+G(2d,p)
 ****
 33  36  37 0
 6-311+G(2d,p)
 ****
 1  2  13  14  15  16  17  18  19  20  21  23  24  26 0
 3-21G
 ****
 27  28  34  35  38  39  40  41  42  43  44  45  46  47  48 0
 3-21G
 ****


