%nproc=1
%NoSave
%Mem=1900MB
#P OB98/GEN NMR

erre ene a

0 1
  C      258.167      88.529     225.239
  O      256.838      88.917     225.544
  P      256.523      90.116     226.567
  C      255.037      88.622     228.066
  O      256.214      89.406     227.970
  C      253.856      89.490     228.497
  O      252.639      88.702     228.389
  C      253.940      90.009     229.937
  O      253.351      91.315     229.952
  C      253.084      89.026     230.707
  O      252.613      89.556     231.942
  C      251.991      88.729     229.677
  N      251.293      87.472     229.943
  C      250.261      87.482     230.881
  O      249.961      88.519     231.481
  N      249.574      86.318     231.123
  C      249.951      85.219     230.547
  N      249.203      84.107     230.773
  C      251.105      85.137     229.632
  C      251.704      86.293     229.361
  O      255.481      91.075     226.105
  O      257.951      90.781     226.841
  H      251.971      88.925     232.319
  H      258.198      91.458     226.159
  H      251.394      84.192     229.193
  H      252.548      86.335     228.682
  H      251.262      89.552     229.648
  H      253.674      88.124     230.929
  H      254.969      90.076     230.299
  H      253.765      90.328     227.792
  H      248.322      84.236     231.261
  H      255.199      87.847     228.820
  H      249.224      83.319     230.127
  H      254.840      88.135     227.105
  P      253.715      92.304     231.168
  C      251.264      92.507     232.006
  O      252.591      92.134     232.302
  O      253.338      93.737     230.539
  O      255.141      92.307     231.614
  H      253.867      94.427     230.985
  H      250.645      92.314     232.892
  H      250.874      91.916     231.175
  H      251.211      93.573     231.768
  H      258.151      87.718     224.542
  H      258.663      88.219     226.135
  H      258.691      89.357     224.810

 3  4  5  6  7  8  9  10  11  12  13  23  27  28  29  30  32 0
 6-311+G(2d,p)
 ****
 34  35 0
 6-311+G(2d,p)
 ****
 1  2  14  15  16  17  18  19  20  21  22  24  25  26 0
 3-21G
 ****
 31  33  36  37  38  39  40  41  42  43  44  45  46 0
 3-21G
 ****


