%nproc=1
%NoSave
%Mem=1900MB
#P OB98/GEN NMR

erre ene a

0 1
  C     -178.246    -673.959    -279.409
  O     -176.960    -673.859    -278.824
  H     -178.938    -674.367    -278.670
  H     -178.209    -674.637    -280.267
  H     -178.603    -672.974    -279.723
  P     -175.807    -673.196    -279.716
  C     -175.075    -670.730    -280.029
  O     -175.582    -671.708    -279.137
  C     -174.079    -669.810    -279.312
  O     -174.798    -669.071    -278.274
  C     -172.913    -670.550    -278.638
  O     -171.749    -669.715    -278.735
  C     -173.334    -670.586    -277.171
  O     -172.238    -670.775    -276.290
  C     -174.033    -669.233    -277.054
  N     -173.968    -668.933    -272.025
  C     -172.927    -668.941    -272.943
  N     -171.678    -668.852    -272.440
  N     -173.101    -669.021    -274.233
  C     -174.406    -669.073    -274.597
  C     -175.530    -669.081    -273.790
  C     -175.317    -669.011    -272.362
  O     -176.193    -669.025    -271.498
  N     -176.675    -669.170    -274.541
  C     -176.249    -669.204    -275.800
  N     -174.886    -669.155    -275.884
  O     -176.546    -672.952    -281.119
  O     -174.568    -674.014    -279.871
  H     -171.558    -670.101    -276.497
  H     -176.388    -673.705    -281.716
  H     -173.774    -668.883    -271.043
  H     -176.884    -669.285    -276.672
  H     -173.316    -668.403    -276.982
  H     -174.050    -671.412    -277.013
  H     -171.469    -668.734    -271.464
  H     -172.697    -671.533    -279.052
  H     -170.901    -668.811    -273.099
  H     -173.715    -669.064    -280.027
  H     -175.905    -670.127    -280.419
  H     -174.571    -671.229    -280.870
  P     -170.710    -669.999    -279.927
  C     -171.359    -670.429    -282.410
  O     -171.399    -669.538    -281.303
  O     -170.734    -671.603    -280.036
  O     -169.328    -669.485    -279.681
  H     -169.880    -671.918    -280.382
  H     -171.856    -669.982    -283.246
  H     -171.850    -671.343    -282.150
  H     -170.341    -670.632    -282.668

 6  7  8  9  10  11  12  13  14  15  26  29  33  34 0
 6-311+G(2d,p)
 ****
 36  38  39  40  41 0
 6-311+G(2d,p)
 ****
 1  2  3  4  5  16  17  18  19  20  21  22  23  24  25 0
 3-21G
 ****
 27  28  30  31  32  35  37  42  43  44  45  46  47 0
 3-21G
 ****
 48  49 0
 3-21G
 ****


