%nproc=1
%NoSave
%Mem=1900MB
#P OB98/GEN NMR

erre ene a

0 1
  C      212.898     230.442    -133.088
  O      213.031     230.416    -134.493
  H      212.322     231.328    -132.808
  H      213.878     230.497    -132.610
  H      212.361     229.554    -132.739
  P      213.895     229.246    -135.163
  C      214.541     230.859    -137.071
  O      214.001     229.587    -136.728
  C      213.776     231.454    -138.260
  O      214.029     230.612    -139.411
  C      212.259     231.500    -138.019
  O      211.699     232.792    -138.236
  C      211.735     230.350    -138.872
  O      210.397     230.498    -139.302
  C      212.765     230.261    -140.005
  N      212.837     228.945    -140.636
  C      211.949     228.688    -141.675
  O      211.126     229.484    -142.118
  N      212.037     227.435    -142.229
  C      212.894     226.447    -141.851
  O      212.929     225.347    -142.390
  C      213.792     226.773    -140.732
  C      213.723     227.988    -140.184
  O      213.449     227.856    -134.857
  O      215.383     229.513    -134.636
  H      210.116     229.647    -139.696
  H      215.593     228.886    -133.919
  H      211.405     227.240    -142.990
  H      214.479     226.007    -140.400
  H      214.373     228.263    -139.359
  H      212.541     230.991    -140.783
  H      211.781     229.432    -138.275
  H      212.025     231.297    -136.968
  H      214.183     232.446    -138.480
  H      215.595     230.721    -137.328
  H      214.469     231.534    -136.210
  P      211.124     233.738    -137.085
  C      209.214     234.905    -138.450
  O      210.460     235.018    -137.777
  O      212.044     233.990    -135.938
  O      209.860     232.909    -136.521
  H      209.794     233.117    -135.568
  H      208.934     235.859    -138.845
  H      208.466     234.570    -137.762
  H      209.303     234.200    -139.250

 6  7  8  9  10  11  12  13  14  15  16  26  31  32  33  34  35 0
 6-311+G(2d,p)
 ****
 36  37 0
 6-311+G(2d,p)
 ****
 1  2  3  4  5  17  18  19  20  21  22  23  24  25 0
 3-21G
 ****
 27  28  29  30  38  39  40  41  42  43  44  45 0
 3-21G
 ****


