%nproc=1
%NoSave
%Mem=1900MB
#P OB98/GEN NMR

erre ene a

0 1
  C      520.377    -710.806    -720.952
  O      519.006    -710.436    -720.965
  P      518.263    -710.368    -722.401
  C      516.286    -711.544    -721.179
  O      516.690    -710.561    -722.123
  C      514.832    -711.345    -720.762
  O      514.740    -710.139    -719.936
  C      513.846    -711.160    -721.929
  O      512.617    -711.771    -721.538
  C      513.717    -709.661    -722.018
  O      512.590    -709.201    -722.758
  C      513.720    -709.305    -720.535
  N      512.054    -704.494    -721.219
  C      511.499    -705.704    -721.530
  N      511.999    -706.934    -721.309
  C      513.196    -706.850    -720.690
  C      513.891    -705.719    -720.342
  C      513.263    -704.483    -720.625
  N      513.832    -703.262    -720.319
  N      515.093    -706.038    -719.729
  C      515.142    -707.359    -719.755
  N      514.012    -707.884    -720.295
  O      518.682    -711.753    -723.100
  O      518.620    -709.182    -723.237
  H      512.552    -708.232    -722.745
  H      518.858    -711.632    -724.045
  H      510.528    -705.671    -722.021
  H      515.967    -707.952    -719.390
  H      512.765    -709.536    -720.050
  H      514.589    -709.241    -722.516
  H      514.198    -711.635    -722.862
  H      514.533    -712.202    -720.130
  H      516.919    -711.470    -720.284
  H      513.416    -702.458    -720.748
  H      514.813    -703.271    -720.062
  H      516.447    -712.553    -721.609
  P      511.859    -712.731    -722.575
  C      510.477    -713.041    -720.408
  O      510.461    -713.115    -721.825
  O      512.678    -714.109    -722.401
  O      511.741    -712.243    -723.980
  H      512.777    -714.349    -721.458
  H      509.454    -713.204    -720.039
  H      510.821    -712.057    -720.077
  H      511.146    -713.823    -720.000
  H      520.736    -710.810    -719.944
  H      520.941    -710.104    -721.529
  H      520.487    -711.783    -721.373

 3  4  5  6  7  8  9  10  11  12  22  25  29  30  31  32 0
 6-311+G(2d,p)
 ****
 33  36  37 0
 6-311+G(2d,p)
 ****
 1  2  13  14  15  16  17  18  19  20  21  23  24  26 0
 3-21G
 ****
 27  28  34  35  38  39  40  41  42  43  44  45  46  47  48 0
 3-21G
 ****


