%nproc=1
%NoSave
%Mem=1900MB
#P OB98/GEN NMR

erre ene a

0 1
  C      441.284     499.376     136.715
  O      440.892     498.223     135.988
  H      442.116     499.846     136.192
  H      441.621     499.092     137.716
  H      440.461     500.090     136.784
  P      439.610     497.393     136.496
  C      440.600     495.586     134.960
  O      439.413     496.179     135.457
  C      440.291     494.705     133.757
  O      439.501     493.569     134.191
  C      439.499     495.413     132.646
  O      439.982     494.958     131.379
  C      438.078     494.951     132.859
  O      437.309     494.983     131.661
  C      438.294     493.534     133.396
  N      434.031     490.826     133.298
  C      434.991     491.008     132.327
  N      434.770     490.404     131.130
  N      436.067     491.722     132.499
  C      436.164     492.262     133.738
  C      435.279     492.150     134.786
  C      434.085     491.372     134.581
  O      433.190     491.179     135.398
  N      435.713     492.868     135.881
  C      436.856     493.400     135.488
  N      437.171     493.080     134.198
  O      438.378     498.202     136.742
  O      440.123     496.667     137.824
  H      436.446     494.562     131.856
  H      439.819     497.145     138.617
  H      433.210     490.267     133.107
  H      437.486     494.047     136.102
  H      438.435     492.789     132.600
  H      437.582     495.580     133.604
  H      433.974     489.822     130.937
  H      439.592     496.511     132.696
  H      435.484     490.509     130.413
  H      441.239     494.296     133.360
  H      441.042     494.972     135.760
  H      441.316     496.371     134.673
  P      441.562     494.885     131.126
  C      441.782     495.239     128.581
  O      441.804     494.297     129.646
  O      442.361     494.229     132.211
  O      441.972     496.429     130.956
  H      442.893     496.541     131.263
  H      441.953     494.733     127.654
  H      442.548     495.970     128.735
  H      440.828     495.723     128.552

 6  7  8  9  10  11  12  13  14  15  26  29  33  34 0
 6-311+G(2d,p)
 ****
 36  38  39  40  41 0
 6-311+G(2d,p)
 ****
 1  2  3  4  5  16  17  18  19  20  21  22  23  24  25 0
 3-21G
 ****
 27  28  30  31  32  35  37  42  43  44  45  46  47 0
 3-21G
 ****
 48  49 0
 3-21G
 ****


