%nproc=1
%NoSave
%Mem=1900MB
#P OB98/GEN NMR

erre ene a

0 1
  C     -452.747     629.171      54.946
  O     -452.694     628.175      55.945
  H     -453.101     628.744      54.002
  H     -453.442     629.954      55.263
  H     -451.756     629.617      54.805
  P     -451.801     626.881      55.618
  C     -453.651     626.068      53.992
  O     -452.272     626.357      54.175
  C     -453.823     624.919      53.006
  O     -453.391     625.323      51.690
  C     -453.001     623.675      53.333
  O     -453.605     622.894      54.362
  C     -453.037     622.956      51.989
  O     -454.284     622.256      51.845
  C     -452.968     624.121      50.991
  N     -449.582     622.726      47.388
  C     -450.838     622.299      47.660
  N     -451.671     622.703      48.638
  C     -451.105     623.672      49.379
  C     -449.840     624.212      49.216
  C     -449.056     623.696      48.169
  N     -447.770     624.133      47.909
  N     -449.607     625.199      50.148
  C     -450.713     625.256      50.866
  N     -451.645     624.346      50.438
  O     -452.375     625.765      56.618
  O     -450.330     627.061      55.786
  H     -454.302     621.575      52.550
  H     -451.641     625.200      56.915
  H     -451.218     621.522      47.002
  H     -450.882     625.941      51.693
  H     -453.662     623.975      50.153
  H     -452.235     622.222      51.872
  H     -451.970     623.931      53.580
  H     -454.892     624.675      52.952
  H     -454.160     626.955      53.597
  H     -447.344     623.869      47.038
  H     -447.389     624.864      48.501
  H     -454.089     625.810      54.961
  P     -452.644     621.950      55.227
  C     -453.435     619.715      54.177
  O     -452.376     620.649      54.324
  O     -453.617     621.401      56.380
  O     -451.439     622.626      55.790
  H     -453.089     621.158      57.167
  H     -453.114     618.907      53.554
  H     -454.277     620.199      53.728
  H     -453.712     619.336      55.138

 6  7  8  9  10  11  12  13  14  15  25  28  32  33  34  35 0
 6-311+G(2d,p)
 ****
 36  39  40 0
 6-311+G(2d,p)
 ****
 1  2  3  4  5  16  17  18  19  20  21  22  23  24 0
 3-21G
 ****
 26  27  29  30  31  37  38  41  42  43  44  45  46  47  48 0
 3-21G
 ****


