%nproc=1
%NoSave
%Mem=1900MB
#P OB98/GEN NMR

erre ene a

0 1
  C      -14.670     -71.070     -91.388
  O      -14.757     -72.294     -90.685
  H      -15.451     -70.399     -91.020
  H      -14.825     -71.229     -92.460
  H      -13.697     -70.601     -91.217
  P      -13.767     -73.483     -91.097
  C      -15.306     -74.310     -93.006
  O      -14.035     -73.777     -92.649
  C      -15.147     -75.472     -93.985
  O      -14.636     -74.998     -95.247
  C      -14.171     -76.547     -93.520
  O      -14.752     -77.347     -92.512
  C      -13.889     -77.255     -94.837
  O      -14.964     -78.142     -95.183
  C      -13.832     -76.056     -95.817
  N      -12.476     -75.589     -96.086
  C      -11.803     -76.224     -97.137
  O      -12.350     -77.130     -97.766
  N      -10.522     -75.823     -97.430
  C       -9.977     -74.851     -96.769
  N       -8.709     -74.500     -97.111
  C      -10.664     -74.134     -95.677
  C      -11.892     -74.558     -95.385
  O      -13.796     -74.700     -90.224
  O      -12.321     -72.796     -91.103
  H      -14.693     -78.583     -96.013
  H      -11.878     -72.923     -90.243
  H      -10.175     -73.322     -95.158
  H      -12.467     -74.083     -94.594
  H      -14.295     -76.324     -96.776
  H      -12.980     -77.853     -94.799
  H      -13.239     -76.089     -93.170
  H      -16.142     -75.897     -94.170
  H       -8.286     -75.009     -97.881
  H      -15.876     -73.499     -93.474
  H       -8.252     -73.663     -96.781
  H      -15.851     -74.641     -92.114
  P      -13.861     -78.056     -91.383
  C      -14.018     -80.253     -92.711
  O      -13.152     -79.302     -92.106
  O      -14.581     -78.390     -90.120
  O      -12.641     -77.041     -91.173
  H      -12.927     -76.268     -90.625
  H      -13.436     -81.032     -93.158
  H      -14.607     -79.771     -93.464
  H      -14.663     -80.672     -91.967

 6  7  8  9  10  11  12  13  14  15  16  26  30  31  32  33  35 0
 6-311+G(2d,p)
 ****
 37  38 0
 6-311+G(2d,p)
 ****
 1  2  3  4  5  17  18  19  20  21  22  23  24  25 0
 3-21G
 ****
 27  28  29  34  36  39  40  41  42  43  44  45  46 0
 3-21G
 ****


