%nproc=1
%NoSave
%Mem=1900MB
#P OB98/GEN NMR

erre ene a

0 1
  C      457.588    -764.867     828.303
  O      457.205    -764.623     826.976
  P      457.516    -765.719     825.831
  C      456.498    -764.179     824.023
  O      457.635    -764.950     824.432
  C      456.860    -763.239     822.876
  O      457.782    -762.213     823.340
  C      457.566    -763.925     821.720
  O      456.677    -764.701     820.947
  C      458.148    -762.710     820.996
  O      457.160    -762.072     820.168
  C      458.538    -761.793     822.174
  N      459.970    -761.803     822.437
  C      460.747    -760.964     821.641
  O      460.228    -760.332     820.705
  N      462.091    -760.862     821.896
  C      462.635    -761.627     822.812
  N      463.956    -761.467     823.066
  C      461.867    -762.646     823.561
  C      460.546    -762.673     823.354
  O      456.614    -766.912     825.814
  O      459.036    -766.157     826.121
  H      459.073    -767.130     826.141
  H      457.473    -761.138     820.028
  H      462.378    -763.309     824.245
  H      459.905    -763.351     823.861
  H      458.217    -760.754     821.973
  H      458.990    -762.980     820.346
  H      458.383    -764.541     822.096
  H      455.940    -762.748     822.532
  H      464.454    -760.751     822.533
  H      456.144    -763.610     824.880
  H      464.384    -761.747     823.942
  H      455.689    -764.867     823.722
  P      457.349    -765.765     819.948
  C      455.074    -766.141     818.770
  O      456.447    -765.825     818.629
  O      457.060    -767.172     820.665
  O      458.820    -765.560     819.717
  H      457.834    -767.772     820.545
  H      454.536    -765.792     817.880
  H      454.650    -765.606     819.631
  H      454.927    -767.203     818.885
  H      457.302    -764.037     828.915
  H      458.649    -764.996     828.350
  H      457.105    -765.754     828.656

 3  4  5  6  7  8  9  10  11  12  13  24  27  28  29  30  32 0
 6-311+G(2d,p)
 ****
 34  35 0
 6-311+G(2d,p)
 ****
 1  2  14  15  16  17  18  19  20  21  22  23  25  26 0
 3-21G
 ****
 31  33  36  37  38  39  40  41  42  43  44  45  46 0
 3-21G
 ****


