%nproc=1
%NoSave
%Mem=1900MB
#P OB98/GEN NMR

erre ene a

0 1
  C      382.456     738.142     103.948
  O      383.097     738.816     102.878
  P      382.342     739.092     101.499
  C      384.193     737.958     100.119
  O      382.819     737.925     100.496
  C      384.507     736.828      99.132
  O      384.383     735.545      99.779
  C      383.587     736.780      97.916
  O      383.951     737.785      96.979
  C      383.809     735.350      97.439
  O      384.996     735.249      96.635
  C      383.983     734.590      98.775
  N      382.784     733.859      99.164
  C      382.863     732.477      99.087
  O      383.909     731.907      98.667
  N      381.756     731.716      99.421
  C      380.670     732.327      99.777
  N      379.598     731.535     100.086
  C      380.532     733.801      99.836
  C      381.615     734.490      99.517
  O      382.447     740.484     100.975
  O      380.819     738.649     101.837
  H      384.897     735.888      95.897
  H      380.375     739.320     102.406
  H      379.594     734.245     100.132
  H      381.605     735.580      99.536
  H      384.806     733.869      98.689
  H      382.971     734.995      96.825
  H      382.553     736.908      98.238
  H      385.563     736.950      98.802
  H      379.725     730.531     100.008
  H      384.808     737.832     101.004
  H      378.695     731.889     100.334
  H      384.427     738.932      99.671
  P      382.874     738.290      95.911
  C      384.410     737.852      93.898
  O      383.189     737.536      94.524
  O      382.694     739.761      95.823
  O      381.505     737.592      96.392
  H      380.786     738.251      96.347
  H      384.654     737.064      93.183
  H      385.227     737.915      94.643
  H      384.315     738.812      93.373
  H      383.131     738.060     104.774
  H      382.163     737.164     103.629
  H      381.590     738.693     104.249

 3  4  5  6  7  8  9  10  11  12  13  23  27  28  29  30  32 0
 6-311+G(2d,p)
 ****
 34  35 0
 6-311+G(2d,p)
 ****
 1  2  14  15  16  17  18  19  20  21  22  24  25  26 0
 3-21G
 ****
 31  33  36  37  38  39  40  41  42  43  44  45  46 0
 3-21G
 ****


