%nproc=1
%NoSave
%Mem=1900MB
#P OB98/GEN NMR

erre ene a

0 1
  C       92.109     472.672     111.601
  O       92.614     473.785     110.883
  P       93.503     473.487     109.578
  C       92.191     474.890     107.821
  O       92.512     473.596     108.321
  C       92.975     475.169     106.542
  O       92.503     474.337     105.462
  C       92.848     476.599     106.035
  O       93.712     477.494     106.716
  C       93.288     476.436     104.590
  O       94.726     476.394     104.516
  C       92.694     475.069     104.224
  N       90.509     475.419      99.679
  C       91.819     475.130     100.005
  N       92.676     474.967      98.977
  N       92.245     475.006     101.233
  C       91.277     475.201     102.164
  C       89.947     475.490     101.957
  C       89.488     475.639     100.593
  O       88.357     475.948     100.240
  N       89.272     475.611     103.142
  C       90.187     475.388     104.065
  N       91.428     475.182     103.523
  O       93.796     471.917     109.680
  O       94.758     474.288     109.483
  H       95.050     477.214     104.939
  H       94.542     471.677     109.098
  H       90.229     475.510      98.712
  H       90.002     475.390     105.133
  H       93.374     474.480     103.603
  H       92.960     477.258     103.950
  H       92.424     475.114      98.009
  H       91.805     476.940     106.062
  H       93.654     474.817      99.193
  H       94.028     474.918     106.727
  H       92.441     475.637     108.577
  H       91.115     474.941     107.626
  P       93.305     479.051     106.691
  C       91.793     478.734     108.779
  O       91.885     479.131     107.424
  O       92.961     479.305     105.150
  O       94.365     479.970     107.199
  H       93.103     480.243     104.923
  H       90.845     479.101     109.188
  H       92.610     479.159     109.367
  H       91.810     477.644     108.850
  H       91.540     473.017     112.439
  H       92.924     472.071     111.946
  H       91.482     472.089     110.960

 3  4  5  6  7  8  9  10  11  12  23  26  30  31 0
 6-311+G(2d,p)
 ****
 33  35  36  37  38 0
 6-311+G(2d,p)
 ****
 1  2  13  14  15  16  17  18  19  20  21  22  24  25 0
 3-21G
 ****
 27  28  29  32  34  39  40  41  42  43  44  45  46  47  48  49 0
 3-21G
 ****


