%nproc=1
%NoSave
%Mem=1900MB
#P OB98/GEN NMR

erre ene a

0 1
  C     -379.410      87.895      86.700
  O     -380.641      87.203      86.675
  H     -378.917      87.772      85.732
  H     -378.760      87.490      87.480
  H     -379.582      88.960      86.875
  P     -381.482      87.170      88.039
  C     -383.804      87.918      87.144
  O     -382.647      88.261      87.895
  C     -384.258      89.124      86.328
  O     -383.265      89.436      85.320
  C     -385.554      88.904      85.561
  O     -386.704      89.027      86.382
  C     -385.465      90.007      84.521
  O     -385.943      91.259      85.033
  C     -383.955      90.067      84.223
  N     -383.632      89.447      82.941
  C     -383.916      90.213      81.813
  O     -384.405      91.340      81.866
  N     -383.653      89.619      80.609
  C     -383.196      88.348      80.427
  O     -383.035      87.858      79.316
  C     -382.930      87.580      81.653
  C     -383.161      88.154      82.838
  O     -380.479      87.821      89.103
  O     -381.943      85.814      88.462
  H     -380.124      87.127      89.688
  H     -386.814      91.068      85.437
  H     -383.850      90.159      79.779
  H     -382.567      86.566      81.545
  H     -382.983      87.605      83.756
  H     -383.612      91.109      84.195
  H     -386.064      89.767      83.646
  H     -385.534      87.932      85.054
  H     -384.348      89.987      87.000
  H     -384.611      87.626      87.822
  H     -383.569      87.070      86.494
  P     -387.482      87.682      86.785
  C     -388.348      88.328      89.184
  O     -387.423      87.608      88.385
  O     -386.437      86.579      86.287
  O     -388.840      87.588      86.181
  H     -385.524      86.917      86.290
  H     -388.142      88.147      90.218
  H     -389.343      88.005      88.957
  H     -388.257      89.374      88.980

 6  7  8  9  10  11  12  13  14  15  16  27  31  32  33  34  35 0
 6-311+G(2d,p)
 ****
 36  37 0
 6-311+G(2d,p)
 ****
 1  2  3  4  5  17  18  19  20  21  22  23  24  25 0
 3-21G
 ****
 26  28  29  30  38  39  40  41  42  43  44  45 0
 3-21G
 ****


