%nproc=1
%NoSave
%Mem=1900MB
#P OB98/GEN NMR

erre ene a

0 1
  C       72.530     -30.671       0.135
  O       72.621     -29.774       1.223
  H       71.540     -31.135       0.148
  H       73.283     -31.457       0.230
  H       72.658     -30.146      -0.815
  P       73.914     -28.836       1.342
  C       74.961     -30.277       3.204
  O       75.108     -29.754       1.889
  C       75.851     -31.506       3.375
  O       75.527     -32.494       2.372
  C       77.337     -31.220       3.198
  O       77.879     -30.564       4.328
  C       77.869     -32.620       2.947
  O       78.060     -33.330       4.177
  C       76.729     -33.256       2.121
  N       77.042     -33.294       0.693
  C       77.957     -34.260       0.290
  O       78.486     -35.059       1.060
  N       78.299     -34.240      -1.037
  C       77.930     -33.282      -1.937
  O       78.451     -33.161      -3.041
  C       76.914     -32.326      -1.472
  C       76.532     -32.367      -0.194
  O       73.714     -27.551       2.074
  O       74.333     -28.579      -0.184
  H       74.036     -27.688      -0.452
  H       77.170     -33.421       4.573
  H       78.996     -34.911      -1.328
  H       76.542     -31.595      -2.179
  H       75.809     -31.649       0.183
  H       76.533     -34.280       2.464
  H       78.827     -32.597       2.424
  H       77.492     -30.614       2.298
  H       75.652     -31.943       4.362
  H       73.914     -30.562       3.354
  H       75.227     -29.501       3.929
  P       79.151     -29.604       4.171
  C       80.906     -31.444       4.542
  O       80.380     -30.481       3.635
  O       79.459     -28.756       5.360
  O       78.792     -28.690       2.904
  H       78.936     -27.753       3.141
  H       81.717     -31.965       4.078
  H       80.139     -32.141       4.807
  H       81.258     -30.949       5.423

 6  7  8  9  10  11  12  13  14  15  16  27  31  32  33  34  35 0
 6-311+G(2d,p)
 ****
 36  37 0
 6-311+G(2d,p)
 ****
 1  2  3  4  5  17  18  19  20  21  22  23  24  25 0
 3-21G
 ****
 26  28  29  30  38  39  40  41  42  43  44  45 0
 3-21G
 ****


