%nproc=1
%NoSave
%Mem=1900MB
#P OB98/GEN NMR

erre ene a

0 1
  C      358.938      91.798    -212.836
  O      357.776      92.404    -213.365
  H      359.014      90.762    -213.178
  H      359.814      92.349    -213.189
  H      358.918      91.830    -211.744
  P      356.367      91.750    -212.958
  C      355.370      93.175    -214.889
  O      355.424      91.907    -214.247
  C      354.714      93.028    -216.258
  O      355.580      92.292    -217.151
  C      353.395      92.265    -216.242
  O      352.306      93.085    -215.848
  C      353.285      91.868    -217.703
  O      352.855      93.001    -218.485
  C      354.738      91.508    -218.039
  N      356.543      87.296    -220.318
  C      356.340      88.550    -220.773
  N      355.854      89.615    -220.103
  C      355.557      89.286    -218.835
  C      355.700      88.047    -218.232
  C      356.227      87.016    -219.030
  N      356.419      85.730    -218.574
  N      355.255      88.085    -216.924
  C      354.887      89.337    -216.732
  N      355.040      90.099    -217.862
  O      355.748      92.804    -211.924
  O      356.433      90.369    -212.396
  H      351.914      93.148    -218.269
  H      355.066      92.373    -211.374
  H      356.607      88.722    -221.812
  H      354.504      89.735    -215.803
  H      355.008      91.774    -219.069
  H      352.563      91.068    -217.875
  H      353.459      91.357    -215.626
  H      354.578      94.033    -216.679
  H      356.388      93.558    -215.017
  H      356.625      85.031    -219.271
  H      356.048      85.481    -217.669
  H      354.803      93.871    -214.265
  P      351.119      92.387    -215.021
  C      349.931      94.703    -215.021
  O      349.824      93.302    -215.265
  O      351.511      92.684    -213.501
  O      350.946      90.928    -215.293
  H      351.138      92.004    -212.910
  H      348.992      95.174    -215.227
  H      350.685      95.119    -215.656
  H      350.195      94.868    -213.997

 6  7  8  9  10  11  12  13  14  15  25  28  32  33  34  35 0
 6-311+G(2d,p)
 ****
 36  39  40 0
 6-311+G(2d,p)
 ****
 1  2  3  4  5  16  17  18  19  20  21  22  23  24 0
 3-21G
 ****
 26  27  29  30  31  37  38  41  42  43  44  45  46  47 0
 3-21G
 ****
 48 0
 3-21G
 ****


