%nproc=1
%NoSave
%Mem=1900MB
#P OB98/GEN NMR

erre ene a

0 1
  C      166.084    1104.141    -144.841
  O      165.255    1104.183    -143.683
  P      165.621    1105.277    -142.563
  C      163.961    1107.173    -143.188
  O      165.305    1106.728    -143.163
  C      163.862    1108.566    -142.560
  O      164.590    1109.545    -143.334
  C      162.432    1109.085    -142.489
  O      161.704    1108.455    -141.450
  C      162.682    1110.574    -142.265
  O      163.005    1110.835    -140.898
  C      163.923    1110.831    -143.144
  N      161.944    1114.885    -145.554
  C      162.128    1114.618    -144.248
  N      162.653    1113.502    -143.686
  C      163.034    1112.634    -144.632
  C      162.912    1112.773    -146.010
  C      162.323    1113.956    -146.469
  N      162.126    1114.227    -147.805
  N      163.400    1111.651    -146.650
  C      163.784    1110.842    -145.687
  N      163.599    1111.389    -144.446
  O      167.214    1105.214    -142.494
  O      164.995    1104.994    -141.234
  H      163.738    1110.250    -140.637
  H      167.496    1104.801    -141.661
  H      161.799    1115.389    -143.548
  H      164.208    1109.867    -145.835
  H      164.639    1111.503    -142.671
  H      161.813    1111.196    -142.517
  H      161.910    1108.933    -143.446
  H      164.296    1108.522    -141.546
  H      163.321    1106.470    -142.648
  H      161.623    1115.075    -148.055
  H      162.323    1113.505    -148.484
  H      163.605    1107.183    -144.224
  P      160.196    1108.018    -141.759
  C      160.777    1105.543    -142.146
  O      160.356    1106.752    -142.745
  O      159.707    1109.177    -142.748
  O      159.336    1107.796    -140.555
  H      160.382    1109.370    -143.435
  H      160.814    1104.764    -142.914
  H      160.087    1105.239    -141.358
  H      161.779    1105.668    -141.711
  H      165.735    1103.375    -145.502
  H      167.092    1103.929    -144.551
  H      166.048    1105.087    -145.340

 3  4  5  6  7  8  9  10  11  12  22  25  29  30  31  32 0
 6-311+G(2d,p)
 ****
 33  36  37 0
 6-311+G(2d,p)
 ****
 1  2  13  14  15  16  17  18  19  20  21  23  24  26 0
 3-21G
 ****
 27  28  34  35  38  39  40  41  42  43  44  45  46  47  48 0
 3-21G
 ****


