%nproc=1
%NoSave
%Mem=1900MB
#P OB98/GEN NMR

erre ene a

0 1
  C       17.548     123.590     141.380
  O       17.448     122.679     140.303
  H       16.976     123.198     142.225
  H       17.131     124.559     141.093
  H       18.592     123.706     141.681
  P       18.175     123.110     138.938
  C       16.366     124.732     138.034
  O       17.006     123.470     137.899
  C       15.846     125.215     136.682
  O       16.932     125.691     135.858
  C       15.113     124.150     135.873
  O       13.760     124.046     136.281
  C       15.264     124.696     134.461
  O       14.299     125.739     134.205
  C       16.688     125.268     134.487
  N       20.565     124.624     131.317
  C       19.668     125.667     131.428
  N       19.805     126.681     130.545
  N       18.712     125.712     132.317
  C       18.656     124.607     133.097
  C       19.483     123.507     133.084
  C       20.572     123.497     132.130
  O       21.448     122.641     132.038
  N       19.116     122.598     134.044
  C       18.049     123.132     134.609
  N       17.727     124.349     134.066
  O       18.756     121.727     138.372
  O       19.254     124.129     139.080
  H       14.508     126.166     133.356
  H       19.626     121.897     137.963
  H       21.301     124.658     130.635
  H       17.486     122.686     135.419
  H       16.782     126.158     133.855
  H       15.088     123.924     133.711
  H       20.314     126.572     129.680
  H       15.623     123.182     135.944
  H       19.101     127.408     130.581
  H       15.188     126.073     136.871
  H       17.089     125.454     138.425
  H       15.534     124.640     138.739
  P       13.053     122.610     136.202
  C       11.343     123.605     134.520
  O       11.546     122.829     135.691
  O       12.874     122.216     137.744
  O       13.834     121.570     135.473
  H       13.528     121.535     137.990
  H       10.296     123.661     134.306
  H       11.851     123.148     133.697
  H       11.729     124.591     134.674

 6  7  8  9  10  11  12  13  14  15  26  29  33  34 0
 6-311+G(2d,p)
 ****
 36  38  39  40  41 0
 6-311+G(2d,p)
 ****
 1  2  3  4  5  16  17  18  19  20  21  22  23  24  25 0
 3-21G
 ****
 27  28  30  31  32  35  37  42  43  44  45  46  47 0
 3-21G
 ****
 48  49 0
 3-21G
 ****


