%nproc=1
%NoSave
%Mem=1900MB
#P OB98/GEN NMR

erre ene a

0 1
  C       31.117    -171.343    -167.260
  O       30.882    -169.955    -167.133
  P       31.044    -168.987    -168.399
  C       32.623    -167.822    -166.738
  O       31.872    -167.693    -167.941
  C       33.008    -166.448    -166.197
  O       33.722    -165.682    -167.196
  C       31.821    -165.581    -165.812
  O       31.207    -166.017    -164.615
  C       32.477    -164.208    -165.736
  O       33.157    -164.035    -164.482
  C       33.499    -164.286    -166.891
  N       33.060    -163.552    -168.069
  C       33.725    -162.346    -168.324
  O       34.566    -161.918    -167.534
  N       33.407    -161.653    -169.466
  C       32.432    -162.057    -170.216
  N       32.202    -161.367    -171.366
  C       31.599    -163.237    -169.893
  C       31.979    -163.941    -168.828
  O       29.783    -168.695    -169.142
  O       32.088    -169.757    -169.342
  H       31.723    -169.800    -170.245
  H       33.656    -163.195    -164.550
  H       30.754    -163.493    -170.514
  H       31.442    -164.834    -168.529
  H       34.468    -163.891    -166.570
  H       31.751    -163.391    -165.825
  H       31.081    -165.583    -166.623
  H       33.672    -166.596    -165.334
  H       32.804    -160.577    -171.562
  H       33.528    -168.402    -166.952
  H       31.707    -161.771    -172.155
  H       32.029    -168.375    -166.001
  P       29.963    -167.021    -164.762
  C       29.450    -166.005    -162.436
  O       29.202    -167.054    -163.353
  O       30.661    -168.461    -164.851
  O       29.094    -166.766    -165.950
  H       30.162    -169.030    -165.467
  H       28.630    -165.978    -161.711
  H       29.511    -165.038    -162.941
  H       30.383    -166.202    -161.901
  H       30.960    -171.819    -166.315
  H       32.125    -171.506    -167.578
  H       30.444    -171.754    -167.983

 3  4  5  6  7  8  9  10  11  12  13  24  27  28  29  30  32 0
 6-311+G(2d,p)
 ****
 34  35 0
 6-311+G(2d,p)
 ****
 1  2  14  15  16  17  18  19  20  21  22  23  25  26 0
 3-21G
 ****
 31  33  36  37  38  39  40  41  42  43  44  45  46 0
 3-21G
 ****


