%nproc=1
%NoSave
%Mem=1900MB
#P OB98/GEN NMR

erre ene a

0 1
  C      118.943    -302.678    -238.011
  O      117.886    -301.803    -238.437
  P      117.266    -300.753    -237.388
  C      116.246    -298.361    -237.681
  O      116.391    -299.678    -238.194
  C      116.255    -297.342    -238.827
  O      117.598    -297.188    -239.351
  C      115.404    -297.738    -240.027
  O      114.021    -297.530    -239.789
  C      115.976    -296.835    -241.111
  O      115.394    -295.520    -241.043
  C      117.470    -296.790    -240.736
  N      118.298    -297.618    -241.603
  C      118.599    -297.095    -242.858
  O      118.162    -296.019    -243.261
  N      119.402    -297.869    -243.651
  C      119.865    -299.122    -243.348
  O      120.566    -299.772    -244.109
  C      119.446    -299.656    -242.042
  C      118.692    -298.895    -241.246
  O      118.556    -299.891    -236.980
  O      116.622    -301.348    -236.177
  H      114.425    -295.641    -241.057
  H      118.440    -299.539    -236.078
  H      119.660    -297.497    -244.549
  H      119.772    -300.653    -241.776
  H      118.371    -299.275    -240.281
  H      117.842    -295.755    -240.783
  H      115.785    -297.215    -242.120
  H      115.598    -298.782    -240.295
  H      115.929    -296.371    -238.425
  H      117.074    -298.146    -237.002
  H      115.306    -298.299    -237.124
  P      113.241    -298.698    -239.009
  C      110.701    -299.318    -238.936
  O      111.768    -298.714    -239.636
  O      113.068    -298.035    -237.559
  O      113.976    -299.999    -239.013
  H      112.954    -297.069    -237.608
  H      110.819    -299.206    -237.856
  H      110.655    -300.383    -239.190
  H      109.763    -298.839    -239.240
  H      119.236    -303.306    -238.826
  H      118.599    -303.284    -237.199
  H      119.781    -302.095    -237.691

 3  4  5  6  7  8  9  10  11  12  13  23  28  29  30  31  32 0
 6-311+G(2d,p)
 ****
 33  34 0
 6-311+G(2d,p)
 ****
 1  2  14  15  16  17  18  19  20  21  22  24  25  26 0
 3-21G
 ****
 27  35  36  37  38  39  40  41  42  43  44  45 0
 3-21G
 ****


