%nproc=1
%NoSave
%Mem=1900MB
#P OB98/GEN NMR

erre ene a

0 1
  C     -167.121    -644.246     -42.172
  O     -166.571    -645.532     -41.972
  H     -166.886    -643.886     -43.177
  H     -168.207    -644.308     -42.066
  H     -166.731    -643.547     -41.425
  P     -164.975    -645.661     -42.078
  C     -163.284    -645.357     -44.027
  O     -164.633    -645.589     -43.645
  C     -163.196    -645.230     -45.543
  O     -163.846    -644.015     -45.983
  C     -161.774    -645.154     -46.086
  O     -161.173    -646.433     -46.197
  C     -162.029    -644.545     -47.455
  O     -162.535    -645.553     -48.348
  C     -163.125    -643.516     -47.139
  N     -160.766    -639.417     -49.090
  C     -161.125    -640.594     -49.644
  N     -161.745    -641.638     -49.053
  C     -161.994    -641.375     -47.758
  C     -161.676    -640.223     -47.057
  C     -161.037    -639.203     -47.783
  N     -160.651    -638.006     -47.221
  N     -162.054    -640.336     -45.732
  C     -162.622    -641.524     -45.649
  N     -162.600    -642.193     -46.843
  O     -164.699    -647.196     -41.717
  O     -164.191    -644.726     -41.222
  H     -161.908    -646.301     -48.311
  H     -163.770    -647.312     -41.436
  H     -160.881    -640.716     -50.691
  H     -163.059    -641.942     -44.753
  H     -163.844    -643.406     -47.957
  H     -161.133    -644.134     -47.914
  H     -161.152    -644.467     -45.497
  H     -163.739    -646.073     -45.990
  H     -162.668    -646.198     -43.699
  H     -160.040    -637.423     -47.773
  H     -160.715    -637.901     -46.216
  H     -162.927    -644.442     -43.546
  P     -159.567    -646.497     -46.229
  C     -157.772    -645.278     -47.664
  O     -159.125    -645.716     -47.553
  O     -159.274    -648.028     -46.580
  O     -158.904    -646.059     -44.965
  H     -158.396    -648.300     -46.234
  H     -157.635    -644.776     -48.599
  H     -157.118    -646.124     -47.614
  H     -157.548    -644.606     -46.862

 6  7  8  9  10  11  12  13  14  15  25  28  32  33  34  35 0
 6-311+G(2d,p)
 ****
 36  39  40 0
 6-311+G(2d,p)
 ****
 1  2  3  4  5  16  17  18  19  20  21  22  23  24 0
 3-21G
 ****
 26  27  29  30  31  37  38  41  42  43  44  45  46  47 0
 3-21G
 ****
 48 0
 3-21G
 ****


