%nproc=1
%NoSave
%Mem=1900MB
#P OB98/GEN NMR

erre ene a

0 1
  C     -395.126    -591.389     169.469
  O     -394.015    -592.023     170.103
  P     -394.091    -592.873     171.453
  C     -391.722    -592.796     172.581
  O     -392.631    -593.491     171.744
  C     -390.245    -592.992     172.178
  O     -389.869    -594.376     172.394
  C     -390.093    -592.739     170.666
  O     -389.918    -591.410     170.189
  C     -388.986    -593.697     170.237
  O     -387.687    -593.082     170.247
  C     -389.048    -594.804     171.280
  N     -387.994    -599.414     169.287
  C     -387.129    -598.395     169.635
  N     -385.815    -598.597     169.374
  N     -387.533    -597.261     170.157
  C     -388.876    -597.152     170.297
  C     -389.835    -598.088     169.969
  C     -389.386    -599.350     169.433
  O     -390.109    -600.296     169.128
  N     -391.093    -597.624     170.225
  C     -390.900    -596.386     170.671
  N     -389.556    -596.056     170.735
  O     -395.257    -593.798     171.567
  O     -394.255    -591.728     172.589
  H     -387.736    -592.267     169.720
  H     -394.799    -592.128     173.297
  H     -387.643    -600.266     168.900
  H     -391.686    -595.703     170.955
  H     -388.049    -595.031     171.699
  H     -389.142    -594.040     169.211
  H     -385.469    -599.387     168.859
  H     -390.996    -593.102     170.161
  H     -385.209    -597.772     169.419
  H     -389.575    -592.380     172.791
  H     -391.877    -593.164     173.618
  H     -391.957    -591.734     172.606
  P     -391.061    -590.481     169.569
  C     -389.945    -589.114     167.708
  O     -390.364    -589.132     169.048
  O     -391.903    -589.982     170.859
  O     -391.972    -591.142     168.580
  H     -392.756    -589.620     170.580
  H     -389.222    -588.288     167.574
  H     -390.794    -588.956     167.055
  H     -389.444    -590.052     167.441
  H     -394.794    -590.889     168.583
  H     -395.560    -590.677     170.139
  H     -395.857    -592.126     169.210

 3  4  5  6  7  8  9  10  11  12  23  26  30  31 0
 6-311+G(2d,p)
 ****
 33  35  36  37  38 0
 6-311+G(2d,p)
 ****
 1  2  13  14  15  16  17  18  19  20  21  22  24  25 0
 3-21G
 ****
 27  28  29  32  34  39  40  41  42  43  44  45  46  47  48  49 0
 3-21G
 ****


