%nproc=1
%NoSave
%Mem=1900MB
#P OB98/GEN NMR

erre ene a

0 1
  C     -446.394     125.618     426.965
  O     -446.300     126.799     426.160
  P     -446.985     128.150     426.678
  C     -444.952     129.575     425.972
  O     -446.358     129.396     425.882
  C     -444.469     130.688     425.035
  O     -444.555     130.240     423.652
  C     -445.300     131.978     425.155
  O     -444.500     133.145     425.341
  C     -446.171     131.967     423.907
  O     -446.621     133.256     423.537
  C     -445.296     131.214     422.898
  N     -446.092     130.605     421.822
  C     -446.611     131.461     420.867
  O     -446.500     132.683     420.913
  N     -447.332     130.869     419.858
  C     -447.639     129.545     419.769
  O     -448.332     129.068     418.878
  C     -447.120     128.690     420.857
  C     -446.379     129.255     421.814
  O     -447.050     128.323     428.159
  O     -448.466     128.063     426.054
  H     -447.290     133.155     422.817
  H     -449.090     128.418     426.718
  H     -447.702     131.476     419.143
  H     -447.362     127.640     420.831
  H     -445.990     128.656     422.628
  H     -444.586     131.894     422.417
  H     -447.064     131.363     424.117
  H     -445.942     131.955     426.045
  H     -443.418     130.887     425.268
  H     -444.446     128.644     425.699
  H     -444.679     129.777     427.010
  P     -443.653     133.467     426.658
  C     -441.411     133.322     425.363
  O     -442.247     134.084     426.217
  O     -443.563     132.357     427.661
  O     -444.419     134.715     427.287
  H     -444.457     134.623     428.256
  H     -440.385     133.682     425.453
  H     -441.738     133.449     424.322
  H     -441.435     132.252     425.622
  H     -445.887     124.812     426.477
  H     -447.424     125.361     427.102
  H     -445.942     125.799     427.918

 3  4  5  6  7  8  9  10  11  12  13  23  28  29  30  31  32 0
 6-311+G(2d,p)
 ****
 33  34 0
 6-311+G(2d,p)
 ****
 1  2  14  15  16  17  18  19  20  21  22  24  25  26  27 0
 3-21G
 ****
 35  36  37  38  39  40  41  42  43  44  45 0
 3-21G
 ****


