%nproc=1
%NoSave
%Mem=1900MB
#P OB98/GEN NMR

erre ene a

0 1
  C      477.473     -48.979      30.172
  O      476.645     -48.762      29.016
  P      477.206     -48.754      27.514
  C      477.251     -46.164      27.480
  O      477.983     -47.369      27.278
  C      478.195     -44.971      27.651
  O      479.014     -45.141      28.829
  C      479.203     -44.779      26.524
  O      478.609     -44.268      25.343
  C      480.206     -43.832      27.186
  O      479.787     -42.468      27.082
  C      480.171     -44.286      28.656
  N      481.386     -44.970      29.077
  C      481.258     -45.863      30.149
  O      480.185     -45.982      30.733
  N      482.359     -46.586      30.531
  C      483.509     -46.359      29.968
  N      484.564     -47.116      30.381
  C      483.712     -45.332      28.934
  C      482.619     -44.679      28.540
  O      476.167     -49.041      26.480
  O      478.368     -49.858      27.491
  H      478.466     -50.209      26.585
  H      479.471     -42.335      26.163
  H      484.696     -45.140      28.528
  H      482.676     -43.915      27.772
  H      479.990     -43.426      29.314
  H      481.201     -43.898      26.724
  H      479.695     -45.739      26.311
  H      477.583     -44.065      27.774
  H      484.386     -47.822      31.086
  H      476.648     -46.271      28.392
  H      485.496     -47.037      29.998
  H      476.570     -46.008      26.638
  P      478.108     -45.340      24.258
  C      479.461     -44.544      22.187
  O      479.284     -45.531      23.189
  O      476.976     -44.545      23.450
  O      477.578     -46.605      24.839
  H      476.237     -45.153      23.239
  H      480.509     -44.539      21.878
  H      479.199     -43.544      22.552
  H      478.838     -44.789      21.325
  H      476.870     -48.938      31.055
  H      478.226     -48.220      30.219
  H      477.938     -49.940      30.102

 3  4  5  6  7  8  9  10  11  12  13  24  27  28  29  30  32 0
 6-311+G(2d,p)
 ****
 34  35 0
 6-311+G(2d,p)
 ****
 1  2  14  15  16  17  18  19  20  21  22  23  25  26 0
 3-21G
 ****
 31  33  36  37  38  39  40  41  42  43  44  45  46 0
 3-21G
 ****


