%nproc=1
%NoSave
%Mem=1900MB
#P OB98/GEN NMR

erre ene a

0 1
  C       46.408    -165.071    -146.856
  O       47.249    -164.677    -147.926
  P       47.989    -165.835    -148.758
  C       49.971    -167.458    -148.294
  O       49.114    -166.441    -147.787
  C       51.342    -167.366    -147.636
  O       51.983    -166.113    -147.957
  C       51.309    -167.419    -146.113
  O       51.201    -168.744    -145.621
  C       52.672    -166.835    -145.772
  O       53.689    -167.845    -145.920
  C       52.834    -165.750    -146.844
  N       54.524    -161.588    -144.513
  C       55.226    -162.668    -145.014
  N       56.561    -162.662    -144.809
  N       54.670    -163.659    -145.658
  C       53.326    -163.535    -145.778
  C       52.521    -162.512    -145.329
  C       53.147    -161.425    -144.608
  O       52.573    -160.469    -144.097
  N       51.209    -162.733    -145.649
  C       51.214    -163.881    -146.293
  N       52.469    -164.430    -146.360
  O       48.840    -165.023    -149.843
  O       47.076    -166.828    -149.392
  H       53.730    -168.064    -146.872
  H       49.114    -165.618    -150.569
  H       54.999    -160.850    -144.018
  H       50.337    -164.362    -146.712
  H       53.860    -165.700    -147.221
  H       52.731    -166.471    -144.742
  H       57.038    -161.958    -144.265
  H       50.523    -166.768    -145.709
  H       57.092    -163.470    -145.108
  H       51.965    -168.176    -148.037
  H       50.072    -167.336    -149.375
  H       49.520    -168.437    -148.099
  P       50.538    -168.923    -144.167
  C       51.309    -168.299    -141.766
  O       51.659    -168.438    -143.129
  O       50.501    -170.511    -143.984
  O       49.190    -168.302    -144.022
  H       49.784    -170.766    -143.373
  H       52.226    -168.228    -141.174
  H       50.734    -169.159    -141.416
  H       50.728    -167.383    -141.624
  H       45.985    -164.202    -146.396
  H       46.981    -165.614    -146.134
  H       45.623    -165.694    -147.230

 3  4  5  6  7  8  9  10  11  12  23  26  30  31 0
 6-311+G(2d,p)
 ****
 33  35  36  37  38 0
 6-311+G(2d,p)
 ****
 1  2  13  14  15  16  17  18  19  20  21  22  24  25 0
 3-21G
 ****
 27  28  29  32  34  39  40  41  42  43  44  45  46  47  48  49 0
 3-21G
 ****


