%nproc=1
%NoSave
%Mem=1900MB
#P OB98/GEN NMR

erre ene a

0 1
  C       56.602     303.444    -133.388
  O       57.276     304.193    -132.400
  H       56.916     302.401    -133.312
  H       56.868     303.816    -134.380
  H       55.519     303.492    -133.252
  P       56.791     305.689    -132.096
  C       55.879     305.044    -129.772
  O       55.575     305.570    -131.056
  C       54.795     305.421    -128.758
  O       54.482     306.836    -128.909
  C       53.484     304.641    -128.928
  O       52.890     304.513    -127.630
  C       52.670     305.588    -129.787
  O       51.296     305.272    -129.749
  C       53.072     306.936    -129.185
  N       52.762     308.058    -130.070
  C       51.910     309.031    -129.564
  O       51.398     308.965    -128.446
  N       51.619     310.072    -130.402
  C       52.043     310.197    -131.692
  O       51.725     311.136    -132.410
  C       52.908     309.115    -132.189
  C       53.226     308.112    -131.368
  O       56.507     306.534    -133.293
  O       57.960     306.308    -131.194
  H       50.804     305.821    -130.396
  H       58.025     307.270    -131.343
  H       51.011     310.791    -130.046
  H       53.253     309.179    -133.213
  H       53.862     307.300    -131.705
  H       52.553     307.106    -128.232
  H       52.988     305.527    -130.834
  H       53.623     303.658    -129.383
  H       55.202     305.294    -127.747
  H       56.842     305.459    -129.458
  H       55.966     303.955    -129.835
  P       52.631     303.083    -126.947
  C       54.129     303.871    -125.005
  O       53.801     302.800    -125.886
  O       52.404     301.972    -127.919
  O       51.339     303.302    -126.025
  H       50.857     302.460    -125.931
  H       54.917     303.565    -124.349
  H       53.267     304.135    -124.428
  H       54.449     304.717    -125.576

 6  7  8  9  10  11  12  13  14  15  16  26  31  32  33  34  35 0
 6-311+G(2d,p)
 ****
 36  37 0
 6-311+G(2d,p)
 ****
 1  2  3  4  5  17  18  19  20  21  22  23  24  25 0
 3-21G
 ****
 27  28  29  30  38  39  40  41  42  43  44  45 0
 3-21G
 ****


