%nproc=1
%NoSave
%Mem=1900MB
#P OB98/GEN NMR

erre ene a

0 1
  C      481.104    -416.902     -48.010
  O      481.486    -415.542     -47.918
  H      480.908    -417.140     -49.058
  H      480.192    -417.075     -47.429
  H      481.910    -417.551     -47.642
  P      481.989    -415.023     -46.487
  C      480.923    -415.744     -44.197
  O      480.744    -415.147     -45.471
  C      479.586    -415.794     -43.457
  O      478.744    -416.848     -43.958
  C      479.716    -416.106     -41.972
  O      480.263    -415.035     -41.232
  C      478.265    -416.414     -41.628
  O      477.504    -415.210     -41.467
  C      477.808    -417.193     -42.891
  N      477.739    -418.626     -42.679
  C      476.903    -419.042     -41.633
  O      476.278    -418.210     -40.963
  N      476.827    -420.390     -41.342
  C      477.500    -421.235     -42.054
  N      477.391    -422.554     -41.719
  C      478.366    -420.844     -43.185
  C      478.445    -419.537     -43.431
  O      482.109    -413.442     -46.712
  O      483.231    -415.676     -45.973
  H      477.933    -414.707     -40.743
  H      481.296    -413.038     -47.059
  H      478.902    -421.597     -43.753
  H      479.059    -419.167     -44.241
  H      476.821    -416.840     -43.223
  H      478.176    -416.975     -40.700
  H      480.300    -417.027     -41.832
  H      479.073    -414.836     -43.621
  H      476.797    -422.781     -40.924
  H      481.672    -415.208     -43.610
  H      477.885    -423.300     -42.177
  H      481.300    -416.761     -44.361
  P      480.818    -415.272     -39.741
  C      479.867    -416.209     -37.544
  O      479.592    -415.877     -38.899
  O      481.479    -414.093     -39.118
  O      481.780    -416.548     -39.909
  H      481.339    -417.350     -40.241
  H      478.983    -416.600     -37.086
  H      480.182    -415.332     -37.019
  H      480.643    -416.945     -37.507

 6  7  8  9  10  11  12  13  14  15  16  26  30  31  32  33  35 0
 6-311+G(2d,p)
 ****
 37  38 0
 6-311+G(2d,p)
 ****
 1  2  3  4  5  17  18  19  20  21  22  23  24  25 0
 3-21G
 ****
 27  28  29  34  36  39  40  41  42  43  44  45  46 0
 3-21G
 ****


