%nproc=1
%NoSave
%Mem=1900MB
#P OB98/GEN NMR

erre ene a

0 1
  C      261.893     -22.467      12.576
  O      261.175     -21.349      13.114
  P      260.418     -20.378      12.091
  C      257.856     -20.814      12.016
  O      258.933     -20.136      12.641
  C      256.531     -20.448      12.692
  O      255.396     -20.927      11.936
  C      256.376     -21.029      14.090
  O      257.031     -20.233      15.069
  C      254.868     -20.944      14.277
  O      254.497     -19.600      14.647
  C      254.349     -21.278      12.875
  N      250.766     -24.766      13.658
  C      250.769     -23.412      13.936
  N      249.645     -22.912      14.500
  N      251.778     -22.620      13.685
  C      252.822     -23.254      13.105
  C      252.942     -24.585      12.780
  C      251.823     -25.454      13.078
  O      251.772     -26.662      12.867
  N      254.158     -24.854      12.211
  C      254.768     -23.684      12.170
  N      254.006     -22.683      12.718
  O      260.171     -21.322      10.819
  O      261.185     -19.151      11.725
  H      253.537     -19.615      14.825
  H      260.131     -20.781      10.009
  H      249.963     -25.329      13.877
  H      255.754     -23.514      11.758
  H      253.458     -20.698      12.609
  H      254.510     -21.601      15.073
  H      248.816     -23.454      14.674
  H      256.701     -22.076      14.122
  H      249.616     -21.916      14.681
  H      256.471     -19.352      12.750
  H      258.008     -21.896      12.062
  H      257.847     -20.562      10.952
  P      258.074     -20.956      16.048
  C      260.459     -20.019      15.629
  O      259.235     -19.889      16.323
  O      258.762     -22.043      15.092
  O      257.465     -21.586      17.252
  H      259.018     -22.826      15.612
  H      261.063     -19.127      15.815
  H      260.288     -20.111      14.554
  H      261.005     -20.895      15.993
  H      262.343     -23.019      13.374
  H      262.655     -22.116      11.912
  H      261.217     -23.101      12.040

 3  4  5  6  7  8  9  10  11  12  23  26  30  31 0
 6-311+G(2d,p)
 ****
 33  35  36  37  38 0
 6-311+G(2d,p)
 ****
 1  2  13  14  15  16  17  18  19  20  21  22  24  25 0
 3-21G
 ****
 27  28  29  32  34  39  40  41  42  43  44  45  46  47  48  49 0
 3-21G
 ****


