%nproc=1
%NoSave
%Mem=1900MB
#P OB98/GEN NMR

erre ene a

0 1
  C      -59.696     137.363     -53.708
  O      -59.281     136.107     -53.201
  P      -57.967     136.094     -52.274
  C      -55.593     137.144     -52.570
  O      -56.768     136.642     -53.185
  C      -54.360     136.560     -53.264
  O      -54.284     135.138     -53.040
  C      -54.342     136.754     -54.774
  O      -53.881     138.053     -55.102
  C      -53.401     135.639     -55.213
  O      -52.025     136.028     -55.040
  C      -53.778     134.505     -54.248
  N      -54.598     130.805     -57.594
  C      -53.509     131.643     -57.445
  N      -52.469     131.431     -58.282
  N      -53.442     132.598     -56.553
  C      -54.559     132.700     -55.795
  C      -55.706     131.943     -55.858
  C      -55.745     130.858     -56.811
  O      -56.644     130.028     -56.918
  N      -56.635     132.360     -54.942
  C      -56.037     133.347     -54.306
  N      -54.768     133.581     -54.771
  O      -57.655     134.535     -52.112
  O      -58.109     136.794     -50.959
  H      -51.448     135.352     -55.437
  H      -57.996     134.201     -51.259
  H      -54.585     130.077     -58.286
  H      -56.469     133.907     -53.490
  H      -52.907     133.906     -53.956
  H      -53.524     135.387     -56.271
  H      -52.460     130.733     -59.007
  H      -55.340     136.582     -55.194
  H      -51.664     132.039     -58.188
  H      -53.472     137.017     -52.808
  H      -55.586     136.851     -51.517
  H      -55.592     138.237     -52.634
  P      -54.599     138.809     -56.321
  C      -54.838     138.408     -58.876
  O      -54.294     137.964     -57.647
  O      -53.723     140.136     -56.499
  O      -56.037     139.134     -56.088
  H      -54.303     140.880     -56.755
  H      -54.169     138.105     -59.684
  H      -54.956     139.494     -58.899
  H      -55.813     137.939     -59.026
  H      -60.575     137.234     -54.304
  H      -58.915     137.781     -54.309
  H      -59.911     138.023     -52.894

 3  4  5  6  7  8  9  10  11  12  23  26  30  31 0
 6-311+G(2d,p)
 ****
 33  35  36  37  38 0
 6-311+G(2d,p)
 ****
 1  2  13  14  15  16  17  18  19  20  21  22  24  25 0
 3-21G
 ****
 27  28  29  32  34  39  40  41  42  43  44  45  46  47  48  49 0
 3-21G
 ****


