%nproc=1
%NoSave
%Mem=1900MB
#P OB98/GEN NMR

erre ene a

0 1
  C     -429.887    -373.232     -34.596
  O     -428.988    -372.260     -35.093
  H     -429.431    -373.724     -33.733
  H     -430.091    -373.982     -35.367
  H     -430.822    -372.759     -34.281
  P     -429.494    -371.394     -36.345
  C     -427.941    -372.350     -38.211
  O     -428.231    -371.272     -37.331
  C     -426.829    -371.945     -39.186
  O     -427.217    -370.705     -39.847
  C     -425.474    -371.687     -38.503
  O     -424.427    -372.014     -39.435
  C     -425.511    -370.182     -38.301
  O     -424.222    -369.687     -38.039
  C     -426.147    -369.761     -39.623
  N     -425.630    -365.089     -41.603
  C     -425.026    -366.266     -41.889
  N     -425.226    -367.471     -41.318
  C     -426.185    -367.392     -40.379
  C     -426.886    -366.270     -39.975
  C     -426.572    -365.067     -40.631
  N     -427.165    -363.864     -40.326
  N     -427.772    -366.591     -38.959
  C     -427.607    -367.884     -38.760
  N     -426.661    -368.409     -39.597
  O     -429.643    -369.923     -35.734
  O     -430.753    -371.863     -36.991
  H     -423.631    -369.807     -38.811
  H     -430.555    -369.780     -35.424
  H     -424.281    -366.228     -42.681
  H     -428.132    -368.482     -38.026
  H     -425.450    -369.833     -40.467
  H     -426.149    -369.915     -37.453
  H     -425.334    -372.257     -37.580
  H     -426.743    -372.710     -39.967
  H     -428.850    -372.604     -38.761
  H     -427.618    -373.215     -37.628
  H     -426.864    -363.042     -40.823
  H     -427.846    -363.826     -39.579
  P     -423.749    -373.468     -39.368
  C     -421.410    -372.969     -38.316
  O     -422.149    -373.347     -39.466
  O     -424.128    -374.077     -40.803
  O     -424.250    -374.359     -38.279
  H     -424.450    -374.993     -40.691
  H     -420.368    -372.938     -38.556
  H     -421.575    -373.682     -37.536
  H     -421.730    -372.002     -37.989

 6  7  8  9  10  11  12  13  14  15  25  28  32  33  34  35 0
 6-311+G(2d,p)
 ****
 36  37  40 0
 6-311+G(2d,p)
 ****
 1  2  3  4  5  16  17  18  19  20  21  22  23  24 0
 3-21G
 ****
 26  27  29  30  31  38  39 41  42  43  44  45  46  47  48 0
 3-21G
 ****


