%nproc=1
%NoSave
%Mem=1900MB
#P OB98/GEN NMR

erre ene a

0 1
  C      -80.473      89.684      16.766
  O      -80.009      90.970      17.134
  H      -80.828      89.171      17.663
  H      -79.663      89.097      16.325
  H      -81.301      89.765      16.058
  P      -79.428      91.923      15.985
  C      -77.638      91.681      14.139
  O      -78.240      91.101      15.289
  C      -76.159      91.314      14.080
  O      -75.456      91.880      15.203
  C      -75.892      89.809      14.113
  O      -76.076      89.244      12.824
  C      -74.444      89.796      14.572
  O      -73.582      90.143      13.470
  C      -74.443      90.922      15.623
  N      -72.688      90.479      20.359
  C      -72.051      90.919      19.213
  N      -70.747      91.246      19.343
  N      -72.634      91.009      18.046
  C      -73.916      90.581      18.055
  C      -74.651      90.109      19.120
  C      -74.013      90.067      20.419
  O      -74.546      89.700      21.463
  N      -75.903      89.707      18.731
  C      -75.939      89.969      17.438
  N      -74.752      90.489      16.976
  O      -79.038      93.309      16.405
  O      -80.574      91.933      14.870
  H      -73.734      89.475      12.777
  H      -81.187      92.679      15.000
  H      -72.179      90.416      21.225
  H      -76.795      89.807      16.794
  H      -73.485      91.453      15.663
  H      -74.120      88.826      14.947
  H      -70.192      90.929      20.130
  H      -76.502      89.304      14.871
  H      -70.250      91.522      18.506
  H      -75.736      91.767      13.174
  H      -77.761      92.767      14.213
  H      -78.140      91.332      13.230
  P      -76.768      87.806      12.641
  C      -76.186      85.484      13.618
  O      -75.698      86.756      13.210
  O      -77.252      87.515      11.260
  O      -77.916      87.767      13.750
  H      -78.779      88.137      13.439
  H      -75.372      84.887      13.974
  H      -76.649      84.996      12.786
  H      -76.904      85.612      14.401

 6  7  8  9  10  11  12  13  14  15  26  29  33  34 0
 6-311+G(2d,p)
 ****
 36  38  39  40  41 0
 6-311+G(2d,p)
 ****
 1  2  3  4  5  16  17  18  19  20  21  22  23  24  25 0
 3-21G
 ****
 27  28  30  31  32  35  37  42  43  44  45  46  47 0
 3-21G
 ****
 48  49 0
 3-21G
 ****


