%nproc=1
%NoSave
%Mem=1900MB
#P OB98/GEN NMR

erre ene a

0 1
  C       90.549    1263.116    1209.867
  O       91.447    1264.029    1209.266
  H       90.614    1262.167    1209.322
  H       89.545    1263.496    1209.816
  H       90.845    1262.945    1210.903
  P       91.459    1265.527    1209.833
  C       90.089    1266.467    1207.827
  O       91.306    1266.501    1208.575
  C       90.167    1267.510    1206.702
  O       90.027    1268.829    1207.240
  C       91.478    1267.500    1205.921
  O       91.570    1266.431    1204.974
  C       91.445    1268.869    1205.282
  O       90.694    1268.837    1204.035
  C       90.714    1269.735    1206.333
  N       91.646    1270.606    1207.030
  C       91.966    1271.813    1206.441
  O       91.453    1272.148    1205.353
  N       92.854    1272.631    1207.056
  C       93.525    1272.318    1208.203
  O       94.388    1273.053    1208.696
  C       93.225    1270.999    1208.831
  C       92.294    1270.218    1208.204
  O       92.980    1265.745    1210.307
  O       90.491    1265.792    1210.944
  H       93.020    1265.732    1211.284
  H       90.763    1269.749    1203.663
  H       93.069    1273.486    1206.626
  H       93.736    1270.709    1209.703
  H       92.064    1269.250    1208.646
  H       89.961    1270.371    1205.866
  H       92.445    1269.219    1205.027
  H       92.328    1267.470    1206.646
  H       89.325    1267.299    1205.998
  H       89.238    1266.712    1208.470
  H       89.954    1265.455    1207.423
  P       92.716    1265.308    1205.219
  C       94.439    1266.880    1203.983
  O       93.836    1265.580    1204.104
  O       91.913    1264.017    1204.708
  O       93.155    1265.247    1206.636
  H       91.239    1264.237    1204.017
  H       95.157    1266.868    1203.190
  H       94.926    1267.134    1204.901
  H       93.683    1267.605    1203.768

 6  7  8  9  10  11  12  13  14  15  16  27  31  32  33  34  35 0
 6-311+G(2d,p)
 ****
 36  37 0
 6-311+G(2d,p)
 ****
 1  2  3  4  5  17  18  19  20  21  22  23  24  25 0
 3-21G
 ****
 26  28  29  30  38  39  40  41  42  43  44  45 0
 3-21G
 ****


