%nproc=1
%NoSave
%Mem=1900MB
#P OB98/GEN NMR

erre ene a

0 1
  C     -253.733    -144.501    -158.653
  O     -252.961    -144.950    -159.747
  H     -253.358    -143.525    -158.336
  H     -253.649    -145.200    -157.816
  H     -254.780    -144.400    -158.949
  P     -253.282    -146.427    -160.292
  C     -252.408    -147.978    -158.386
  O     -252.136    -147.332    -159.621
  C     -252.572    -149.478    -158.606
  O     -253.737    -149.750    -159.417
  C     -251.409    -150.141    -159.341
  O     -250.279    -150.366    -158.517
  C     -252.073    -151.441    -159.759
  O     -252.192    -152.311    -158.619
  C     -253.455    -150.930    -160.219
  N     -253.499    -150.604    -161.646
  C     -254.094    -151.552    -162.487
  O     -254.547    -152.600    -162.032
  N     -254.129    -151.306    -163.839
  C     -253.636    -150.204    -164.310
  N     -253.698    -150.018    -165.656
  C     -253.013    -149.173    -163.461
  C     -252.980    -149.434    -162.156
  O     -252.825    -146.364    -161.825
  O     -254.674    -146.915    -160.080
  H     -252.588    -153.140    -158.943
  H     -252.844    -147.270    -162.219
  H     -252.603    -148.274    -163.900
  H     -252.538    -148.722    -161.468
  H     -254.238    -151.666    -160.004
  H     -251.513    -151.988    -160.518
  H     -251.130    -149.581    -160.240
  H     -252.740    -149.943    -157.628
  H     -254.077    -150.769    -166.218
  H     -253.331    -147.556    -157.973
  H     -253.212    -149.268    -166.130
  H     -251.590    -147.802    -157.682
  P     -248.851    -150.482    -159.242
  C     -249.293    -152.996    -159.750
  O     -248.423    -152.024    -159.184
  O     -247.857    -149.782    -158.203
  O     -248.780    -149.850    -160.597
  H     -247.138    -149.314    -158.669
  H     -248.866    -153.970    -159.630
  H     -249.427    -152.791    -160.792
  H     -250.240    -152.959    -159.254

 6  7  8  9  10  11  12  13  14  15  16  26  30  31  32  33  35 0
 6-311+G(2d,p)
 ****
 37  38 0
 6-311+G(2d,p)
 ****
 1  2  3  4  5  17  18  19  20  21  22  23  24  25 0
 3-21G
 ****
 27  28  29  34  36  39  40  41  42  43  44  45  46 0
 3-21G
 ****


