%nproc=1
%NoSave
%Mem=1900MB
#P OB98/GEN NMR

erre ene a

0 1
  C      412.148    -312.840      -0.088
  O      411.714    -312.271       1.152
  P      410.667    -311.052       1.057
  C      408.469    -312.258       1.750
  O      409.234    -311.680       0.703
  C      407.002    -312.380       1.344
  O      406.844    -313.291       0.244
  C      406.091    -312.918       2.439
  O      405.744    -311.912       3.374
  C      404.874    -313.344       1.629
  O      404.033    -312.205       1.376
  C      405.506    -313.847       0.321
  N      402.933    -318.176      -0.260
  C      402.479    -316.870      -0.240
  N      401.152    -316.694      -0.430
  N      403.253    -315.834      -0.054
  C      404.558    -316.160       0.093
  C      405.131    -317.411       0.095
  C      404.257    -318.553      -0.084
  O      404.601    -319.731      -0.078
  N      406.490    -317.343       0.260
  C      406.744    -316.050       0.331
  N      405.604    -315.291       0.248
  O      411.096    -310.319      -0.302
  O      410.703    -310.131       2.230
  H      404.574    -311.554       0.885
  H      410.846    -309.375      -0.263
  H      402.289    -318.935      -0.402
  H      407.732    -315.617       0.436
  H      404.959    -313.493      -0.559
  H      404.258    -314.085       2.149
  H      400.510    -317.438      -0.653
  H      406.538    -313.792       2.926
  H      400.806    -315.740      -0.455
  H      406.652    -311.388       1.024
  H      408.546    -311.643       2.649
  H      408.890    -313.236       1.998
  P      405.644    -312.344       4.916
  C      408.056    -311.811       5.712
  O      407.119    -312.800       5.329
  O      404.816    -313.714       4.856
  O      404.992    -311.336       5.802
  H      404.314    -313.843       5.683
  H      407.596    -311.066       6.367
  H      408.451    -311.316       4.820
  H      408.880    -312.289       6.245
  H      412.837    -313.635       0.106
  H      412.629    -312.087      -0.677
  H      411.302    -313.223      -0.620

 3  4  5  6  7  8  9  10  11  12  23  26  30  31  33  0
 6-311+G(2d,p)
 ****
 35  36  37  38 0
 6-311+G(2d,p)
 ****
 1  2  13  14  15  16  17  18  19  20  21  22  24  25  27  28  29 0
 3-21G
 ****
 32  34  39  40  41  42  43  44  45  46  47  48  49 0
 3-21G
 ****


