%nproc=1
%NoSave
%Mem=1900MB
#P OB98/GEN NMR

erre ene a

0 1
  C     -116.353     -88.522    -130.190
  O     -115.501     -88.332    -131.301
  H     -116.833     -87.569    -129.953
  H     -115.781     -88.852    -129.322
  H     -117.130     -89.256    -130.428
  P     -114.621     -89.569    -131.818
  C     -112.382     -90.633    -131.100
  O     -113.198     -89.466    -131.084
  C     -110.957     -90.287    -130.648
  O     -110.399     -89.362    -131.611
  C     -110.926     -89.619    -129.263
  O     -110.031     -90.264    -128.357
  C     -110.676     -88.150    -129.591
  O     -110.047     -87.422    -128.559
  C     -109.891     -88.214    -130.905
  N     -110.010     -87.008    -131.721
  C     -109.377     -85.855    -131.258
  O     -108.720     -85.780    -130.226
  N     -109.521     -84.744    -132.050
  C     -110.228     -84.670    -133.214
  O     -110.317     -83.646    -133.881
  C     -110.896     -85.911    -133.636
  C     -110.762     -87.004    -132.885
  O     -114.547     -89.733    -133.300
  O     -115.294     -90.844    -131.121
  H     -109.374     -88.014    -128.158
  H     -115.813     -91.342    -131.782
  H     -109.057     -83.909    -131.735
  H     -111.475     -85.884    -134.550
  H     -111.241     -87.938    -133.164
  H     -108.830     -88.376    -130.708
  H     -111.648     -87.671    -129.778
  H     -111.897     -89.715    -128.765
  H     -110.347     -91.199    -130.673
  H     -112.371     -91.022    -132.124
  H     -112.809     -91.391    -130.433
  P     -110.365     -90.621    -126.837
  C     -110.174     -89.395    -124.516
  O     -109.924     -89.388    -125.917
  O     -109.954     -91.980    -126.379
  O     -111.976     -90.554    -126.777
  H     -112.251     -91.213    -126.107
  H     -109.807     -88.488    -124.084
  H     -109.677     -90.230    -124.069
  H     -111.227     -89.472    -124.342

 6  7  8  9  10  11  12  13  14  15  16  26  31  32  33  34  35 0
 6-311+G(2d,p)
 ****
 36  37 0
 6-311+G(2d,p)
 ****
 1  2  3  4  5  17  18  19  20  21  22  23  24  25 0
 3-21G
 ****
 27  28  29  30  38  39  40  41  42  43  44  45 0
 3-21G
 ****


