%nproc=1
%NoSave
%Mem=1900MB
#P OB98/GEN NMR

erre ene a

0 1
  C      380.652    -695.295     606.189
  O      381.311    -696.461     606.654
  P      382.787    -696.296     607.268
  C      384.929    -695.069     606.427
  O      383.700    -695.706     606.084
  C      385.271    -693.997     605.398
  O      384.227    -693.003     605.322
  C      386.540    -693.213     605.708
  O      387.716    -693.918     605.314
  C      386.343    -691.988     604.837
  O      386.692    -692.286     603.466
  C      384.830    -691.744     604.964
  N      384.680    -686.780     605.922
  C      384.889    -687.440     604.728
  N      385.150    -686.661     603.646
  N      384.840    -688.732     604.595
  C      384.574    -689.387     605.764
  C      384.348    -688.832     607.008
  C      384.416    -687.394     607.136
  O      384.292    -686.756     608.178
  N      384.111    -689.804     607.944
  C      384.182    -690.941     607.273
  N      384.505    -690.740     605.955
  O      383.296    -697.805     607.425
  O      382.838    -695.541     608.561
  H      387.617    -692.590     603.476
  H      384.062    -697.833     608.035
  H      384.730    -685.767     605.974
  H      384.032    -691.922     607.699
  H      384.394    -691.429     604.002
  H      386.967    -691.139     605.154
  H      385.260    -685.661     603.692
  H      386.579    -692.915     606.763
  H      385.371    -687.133     602.765
  H      385.340    -694.486     604.406
  H      385.721    -695.811     606.472
  H      384.826    -694.625     607.423
  P      389.096    -693.405     605.931
  C      390.318    -691.104     605.823
  O      389.390    -692.004     605.217
  O      390.179    -694.404     605.289
  O      389.146    -693.404     607.432
  H      390.957    -694.473     605.868
  H      390.603    -690.351     605.089
  H      391.226    -691.633     606.142
  H      389.857    -690.618     606.687
  H      379.686    -695.558     605.811
  H      381.230    -694.846     605.409
  H      380.542    -694.601     606.996

 3  4  5  6  7  8  9  10  11  12  23  26  30  31 0
 6-311+G(2d,p)
 ****
 33  35  36  37  38 0
 6-311+G(2d,p)
 ****
 1  2  13  14  15  16  17  18  19  20  21  22  24  25 0
 3-21G
 ****
 27  28  29  32  34  39  40  41  42  43  44  45  46  47  48  49 0
 3-21G
 ****


