%nproc=1
%NoSave
%Mem=1900MB
#P OB98/GEN NMR

erre ene a

0 1
  C      -63.682    -573.481    1406.598
  O      -62.685    -572.735    1405.919
  H      -63.427    -574.538    1406.531
  H      -64.651    -573.328    1406.123
  H      -63.728    -573.197    1407.659
  P      -62.724    -571.130    1405.995
  C      -64.571    -569.411    1405.397
  O      -63.946    -570.653    1405.056
  C      -65.997    -569.420    1404.857
  O      -66.821    -570.357    1405.592
  C      -66.699    -568.044    1405.034
  O      -66.259    -567.133    1404.053
  C      -68.153    -568.460    1404.904
  O      -68.527    -568.633    1403.523
  C      -68.159    -569.835    1405.632
  N      -68.660    -569.739    1407.011
  C      -69.956    -569.286    1407.165
  O      -70.669    -568.933    1406.210
  N      -70.429    -569.203    1408.458
  C      -69.672    -569.431    1409.579
  O      -70.102    -569.283    1410.718
  C      -68.300    -569.898    1409.362
  C      -67.858    -570.016    1408.101
  O      -61.428    -570.439    1405.754
  O      -63.296    -570.838    1407.466
  H      -69.498    -568.796    1403.535
  H      -62.547    -570.544    1408.041
  H      -71.363    -568.863    1408.595
  H      -67.688    -570.099    1410.230
  H      -66.840    -570.364    1407.915
  H      -68.792    -570.559    1405.084
  H      -68.827    -567.733    1405.340
  H      -66.526    -567.644    1406.059
  H      -65.991    -569.703    1403.807
  H      -64.002    -568.604    1404.923
  H      -64.537    -569.286    1406.479
  P      -66.582    -565.569    1404.234
  C      -68.563    -564.138    1405.022
  O      -68.140    -565.416    1404.577
  O      -66.099    -564.700    1403.124
  O      -65.857    -565.184    1405.616
  H      -65.182    -564.479    1405.440
  H      -69.615    -564.159    1405.218
  H      -68.356    -563.410    1404.266
  H      -68.038    -563.881    1405.918

 6  7  8  9  10  11  12  13  14  15  16  26  31  32  33  34  35 0
 6-311+G(2d,p)
 ****
 36  37 0
 6-311+G(2d,p)
 ****
 1  2  3  4  5  17  18  19  20  21  22  23  24  25 0
 3-21G
 ****
 27  28  29  30  38  39  40  41  42  43  44  45 0
 3-21G
 ****


