%nproc=1
%NoSave
%Mem=1900MB
#P OB98/GEN NMR

erre ene a

0 1
  C     -292.260    -707.957     -82.867
  O     -291.788    -709.093     -83.566
  P     -290.258    -709.536     -83.421
  C     -290.925    -711.678     -82.175
  O     -290.141    -710.491     -82.141
  C     -290.019    -712.911     -82.189
  O     -289.306    -712.996     -83.439
  C     -288.947    -712.904     -81.107
  O     -289.501    -713.235     -79.848
  C     -287.963    -713.927     -81.661
  O     -288.396    -715.263     -81.358
  C     -288.052    -713.663     -83.174
  N     -283.201    -713.792     -84.734
  C     -283.982    -714.723     -84.150
  N     -285.259    -714.599     -83.725
  C     -285.705    -713.351     -83.940
  C     -285.013    -712.285     -84.492
  C     -283.703    -712.549     -84.926
  N     -282.917    -711.628     -85.580
  N     -285.806    -711.154     -84.512
  C     -286.948    -711.531     -83.971
  N     -286.956    -712.863     -83.672
  O     -289.262    -708.422     -83.472
  O     -290.037    -710.543     -84.645
  H     -288.554    -715.305     -80.395
  H     -289.343    -710.195     -85.232
  H     -283.526    -715.700     -84.011
  H     -287.800    -710.882     -83.799
  H     -288.063    -714.597     -83.747
  H     -286.955    -713.810     -81.246
  H     -288.460    -711.921     -81.068
  H     -290.655    -713.801     -82.102
  H     -291.538    -711.661     -83.080
  H     -282.052    -711.962     -85.973
  H     -283.368    -710.815     -85.995
  H     -291.582    -711.704     -81.303
  P     -288.720    -712.842     -78.507
  C     -290.192    -710.771     -78.169
  O     -288.870    -711.259     -78.322
  O     -287.326    -713.366     -78.395
  O     -289.654    -713.426     -77.345
  H     -289.101    -713.699     -76.589
  H     -290.686    -710.739     -79.145
  H     -290.144    -709.760     -77.758
  H     -290.769    -711.407     -77.487
  H     -293.298    -707.812     -83.081
  H     -291.708    -707.094     -83.176
  H     -292.130    -708.106     -81.815

 3  4  5  6  7  8  9  10  11  12  22  25  29  30  31  32 0
 6-311+G(2d,p)
 ****
 33  36  37 0
 6-311+G(2d,p)
 ****
 1  2  13  14  15  16  17  18  19  20  21  23  24  26 0
 3-21G
 ****
 27  28  34  35  38  39  40  41  42  43  44  45  46  47  48 0
 3-21G
 ****


