%nproc=1
%NoSave
%Mem=1900MB
#P OB98/GEN NMR

erre ene a

0 1
  C      354.083    -249.177    -443.264
  O      353.156    -249.587    -442.254
  P      351.894    -250.471    -442.714
  C      351.322    -251.513    -440.379
  O      350.959    -250.613    -441.417
  C      350.249    -251.522    -439.274
  O      350.313    -250.271    -438.518
  C      348.808    -251.688    -439.782
  O      348.124    -252.510    -438.815
  C      348.283    -250.271    -439.753
  O      346.850    -250.236    -439.695
  C      348.983    -249.724    -438.498
  N      349.007    -248.259    -438.452
  C      348.213    -247.652    -437.484
  O      347.441    -248.279    -436.737
  N      348.283    -246.284    -437.423
  C      348.984    -245.484    -438.272
  O      349.012    -244.259    -438.174
  C      349.718    -246.175    -439.340
  C      349.679    -247.505    -439.401
  O      352.570    -251.911    -442.879
  O      351.224    -249.937    -443.941
  H      353.259    -252.103    -442.214
  H      346.567    -250.659    -438.852
  H      347.734    -245.822    -436.705
  H      350.230    -245.568    -440.084
  H      350.181    -248.056    -440.187
  H      348.484    -250.089    -437.596
  H      348.608    -249.721    -440.646
  H      348.762    -252.154    -440.773
  H      350.510    -252.344    -438.575
  H      352.282    -251.212    -439.937
  H      351.475    -252.510    -440.800
  P      348.156    -254.105    -439.037
  C      347.535    -254.593    -436.546
  O      347.221    -254.736    -437.910
  O      349.635    -254.440    -438.519
  O      347.912    -254.543    -440.445
  H      349.846    -254.017    -437.670
  H      346.678    -254.884    -435.944
  H      347.804    -253.559    -436.293
  H      348.378    -255.251    -436.287
  H      354.865    -248.600    -442.817
  H      353.575    -248.583    -443.995
  H      354.502    -250.041    -443.736

 3  4  5  6  7  8  9  10  11  12  13  24  28  29  30  31  32 0
 6-311+G(2d,p)
 ****
 33  34 0
 6-311+G(2d,p)
 ****
 1  2  14  15  16  17  18  19  20  21  22  23  25  26  27 0
 3-21G
 ****
 35  36  37  38  39  40  41  42  43  44  45 0
 3-21G
 ****


