%nproc=1
%NoSave
%Mem=1900MB
#P OB98/GEN NMR

erre ene a

0 1
  C      327.119    -274.582     -73.102
  O      328.228    -274.878     -72.273
  H      326.887    -275.463     -73.707
  H      327.346    -273.752     -73.776
  H      326.246    -274.334     -72.492
  P      328.859    -273.691     -71.400
  C      327.785    -274.631     -69.240
  O      328.988    -274.273     -69.912
  C      327.998    -275.904     -68.428
  O      328.111    -277.042     -69.302
  C      329.280    -275.882     -67.605
  O      329.133    -275.067     -66.459
  C      329.471    -277.361     -67.337
  O      328.635    -277.810     -66.262
  C      329.021    -277.981     -68.681
  N      330.142    -278.287     -69.563
  C      330.815    -279.487     -69.310
  O      330.453    -280.222     -68.392
  N      331.895    -279.809     -70.093
  C      332.261    -279.020     -71.051
  N      333.339    -279.398     -71.792
  C      331.573    -277.751     -71.362
  C      330.535    -277.448     -70.584
  O      328.183    -272.357     -71.485
  O      330.379    -273.626     -71.898
  H      328.957    -278.705     -66.029
  H      330.465    -273.015     -72.652
  H      331.908    -277.127     -72.175
  H      329.971    -276.536     -70.746
  H      328.456    -278.905     -68.510
  H      330.502    -277.590     -67.072
  H      330.118    -275.538     -68.222
  H      327.121    -276.056     -67.785
  H      333.788    -280.271     -71.536
  H      327.022    -274.795     -70.009
  H      333.659    -278.909     -72.613
  H      327.451    -273.816     -68.588
  P      330.382    -274.787     -65.492
  C      331.835    -273.151     -66.859
  O      330.855    -273.290     -65.831
  O      331.453    -275.822     -65.521
  O      329.690    -274.624     -64.054
  H      329.401    -275.498     -63.691
  H      332.067    -272.115     -66.993
  H      331.451    -273.551     -67.774
  H      332.721    -273.682     -66.581

 6  7  8  9  10  11  12  13  14  15  16  26  30  31  32  33  35 0
 6-311+G(2d,p)
 ****
 37  38 0
 6-311+G(2d,p)
 ****
 1  2  3  4  5  17  18  19  20  21  22  23  24  25 0
 3-21G
 ****
 27  28  29  34  36  39  40  41  42  43  44  45  46 0
 3-21G
 ****


