%nproc=1
%NoSave
%Mem=1900MB
#P OB98/GEN NMR

erre ene a

0 1
  C     -317.825    -530.165     601.576
  O     -317.067    -530.176     602.769
  H     -318.547    -529.346     601.624
  H     -318.371    -531.107     601.485
  H     -317.182    -530.021     600.704
  P     -315.704    -531.020     602.764
  C     -313.880    -529.192     603.019
  O     -314.574    -530.065     602.141
  C     -314.255    -527.736     602.732
  O     -315.686    -527.572     602.962
  C     -313.520    -526.713     603.611
  O     -313.240    -525.546     602.828
  C     -314.564    -526.350     604.649
  O     -314.325    -525.076     605.236
  C     -315.834    -526.417     603.808
  N     -318.299    -524.055     607.486
  C     -317.238    -523.641     606.709
  N     -316.704    -522.433     606.988
  N     -316.733    -524.355     605.734
  C     -317.373    -525.535     605.548
  C     -318.429    -526.061     606.250
  C     -318.969    -525.268     607.337
  O     -319.891    -525.590     608.075
  N     -318.747    -527.315     605.791
  C     -317.874    -527.552     604.828
  N     -317.017    -526.502     604.645
  O     -315.965    -532.100     601.611
  O     -315.349    -531.666     604.062
  H     -313.625    -525.175     605.912
  H     -316.300    -532.928     602.003
  H     -318.639    -523.476     608.232
  H     -317.806    -528.464     604.253
  H     -315.958    -525.536     603.165
  H     -314.579    -527.103     605.447
  H     -317.057    -521.814     607.701
  H     -312.591    -527.091     604.053
  H     -315.951    -522.099     606.398
  H     -314.076    -527.533     601.669
  H     -312.803    -529.318     602.874
  H     -314.127    -529.451     604.053
  P     -311.822    -524.826     603.025
  C     -310.753    -524.966     600.655
  O     -310.776    -525.461     601.986
  O     -311.324    -525.395     604.438
  O     -311.893    -523.336     603.029
  H     -310.816    -524.708     604.910
  H     -310.007    -525.488     600.093
  H     -310.524    -523.921     600.667
  H     -311.711    -525.116     600.202

 6  7  8  9  10  11  12  13  14  15  26  29  33  34 0
 6-311+G(2d,p)
 ****
 36  38  39  40  41 0
 6-311+G(2d,p)
 ****
 1  2  3  4  5  16  17  18  19  20  21  22  23  24  25 0
 3-21G
 ****
 27  28  30  31  32  35  37  42  43  44  45  46  47 0
 3-21G
 ****
 48  49 0
 3-21G
 ****


