%nproc=1
%NoSave
%Mem=1900MB
#P OB98/GEN NMR

erre ene a

0 1
  C      216.215    -147.298    -186.179
  O      216.854    -146.515    -185.198
  H      215.449    -147.908    -185.691
  H      216.931    -147.968    -186.660
  H      215.733    -146.664    -186.927
  P      218.061    -145.546    -185.628
  C      217.171    -143.994    -183.787
  O      218.326    -144.606    -184.347
  C      217.519    -143.232    -182.507
  O      217.850    -144.178    -181.454
  C      218.712    -142.277    -182.662
  O      218.392    -141.007    -182.090
  C      219.810    -142.941    -181.846
  O      220.798    -142.023    -181.388
  C      218.982    -143.629    -180.756
  N      219.747    -144.647    -180.047
  C      219.830    -144.503    -178.660
  O      219.269    -143.558    -178.100
  N      220.587    -145.394    -177.945
  C      221.245    -146.321    -178.569
  N      221.999    -147.155    -177.804
  C      221.207    -146.494    -180.034
  C      220.443    -145.633    -180.706
  O      217.848    -144.818    -186.912
  O      219.355    -146.487    -185.646
  H      221.261    -141.649    -182.169
  H      220.040    -146.076    -186.223
  H      221.778    -147.280    -180.506
  H      220.355    -145.680    -181.786
  H      218.611    -142.899    -180.025
  H      220.313    -143.697    -182.463
  H      219.016    -142.133    -183.698
  H      216.623    -142.697    -182.168
  H      222.001    -146.997    -176.803
  H      216.429    -144.773    -183.579
  H      222.571    -147.896    -178.177
  H      216.762    -143.293    -184.520
  P      217.813    -139.901    -183.099
  C      216.047    -138.143    -182.375
  O      217.375    -138.623    -182.233
  O      216.426    -140.534    -183.585
  O      218.719    -139.613    -184.249
  H      216.494    -140.800    -184.521
  H      215.905    -137.294    -181.740
  H      215.358    -138.914    -182.100
  H      215.877    -137.860    -183.393

 6  7  8  9  10  11  12  13  14  15  16  26  30  31  32  33  35 0
 6-311+G(2d,p)
 ****
 37  38 0
 6-311+G(2d,p)
 ****
 1  2  3  4  5  17  18  19  20  21  22  23  24  25 0
 3-21G
 ****
 27  28  29  34  36  39  40  41  42  43  44  45  46 0
 3-21G
 ****


