%nproc=1
%NoSave
%Mem=1900MB
#P OB98/GEN NMR

erre ene a

0 1
  C      222.543      77.142    -237.188
  O      221.638      78.053    -237.793
  P      220.691      77.598    -239.006
  C      222.138      79.004    -240.601
  O      221.610      77.717    -240.315
  C      223.096      78.930    -241.786
  O      224.198      78.063    -241.428
  C      222.522      78.333    -243.074
  O      221.814      79.258    -243.885
  C      223.804      77.915    -243.787
  O      224.418      79.066    -244.393
  C      224.662      77.399    -242.630
  N      226.983      72.910    -243.447
  C      227.360      74.184    -243.706
  N      226.676      75.326    -243.476
  C      225.503      75.061    -242.873
  C      224.989      73.820    -242.542
  C      225.788      72.704    -242.853
  N      225.411      71.408    -242.568
  N      223.744      73.947    -241.955
  C      223.526      75.246    -241.925
  N      224.563      75.960    -242.458
  O      219.382      78.305    -239.068
  O      220.536      76.018    -238.815
  H      225.286      78.777    -244.734
  H      219.777      75.692    -239.336
  H      228.338      74.306    -244.166
  H      222.634      75.711    -241.528
  H      225.726      77.649    -242.750
  H      223.626      77.188    -244.587
  H      221.918      77.441    -242.865
  H      223.500      79.933    -241.970
  H      222.682      79.356    -239.717
  H      226.097      70.686    -242.708
  H      224.598      71.266    -241.984
  H      221.318      79.700    -240.800
  P      220.543      78.693    -244.700
  C      221.860      78.289    -246.928
  O      221.149      77.739    -245.837
  O      219.601      79.743    -245.176
  O      219.891      77.662    -243.666
  H      220.423      76.874    -243.471
  H      222.323      77.477    -247.494
  H      222.648      78.965    -246.580
  H      221.175      78.833    -247.585
  H      223.078      77.638    -236.405
  H      223.235      76.786    -237.922
  H      221.999      76.316    -236.781

 3  4  5  6  7  8  9  10  11  12  22  25  29  30  31  32 0
 6-311+G(2d,p)
 ****
 33  36  37 0
 6-311+G(2d,p)
 ****
 1  2  13  14  15  16  17  18  19  20  21  23  24  26 0
 3-21G
 ****
 27  28  34  35  38  39  40  41  42  43  44  45  46  47  48 0
 3-21G
 ****


