%nproc=1
%NoSave
%Mem=1900MB
#P OB98/GEN NMR

erre ene a

0 1
  C      795.544      77.347     147.740
  O      794.956      78.650     147.755
  P      793.413      78.747     148.190
  C      792.439      78.618     145.794
  O      792.528      78.009     147.068
  C      791.521      77.820     144.852
  O      791.378      78.497     143.571
  C      792.039      76.409     144.549
  O      790.898      75.549     144.389
  C      792.723      76.562     143.201
  O      792.872      75.315     142.541
  C      791.773      77.566     142.534
  N      793.319      77.085     137.691
  C      792.726      76.224     138.545
  N      792.363      76.419     139.829
  C      792.639      77.678     140.205
  C      793.247      78.670     139.454
  C      793.598      78.333     138.139
  N      794.222      79.205     137.286
  N      793.396      79.824     140.201
  C      792.891      79.524     141.388
  N      792.400      78.255     141.423
  O      793.064      80.295     147.976
  O      793.146      78.318     149.593
  H      793.515      75.435     141.815
  H      792.980      80.736     148.837
  H      792.522      75.224     138.131
  H      792.875      80.194     142.238
  H      790.866      77.074     142.147
  H      793.714      77.004     143.343
  H      792.708      75.992     145.313
  H      790.530      77.760     145.299
  H      793.429      78.696     145.335
  H      794.470      78.882     136.358
  H      794.484      80.129     137.608
  H      792.076      79.651     145.909
  P      790.790      74.304     145.395
  C      792.210      72.735     143.887
  O      792.090      73.409     145.128
  O      789.600      73.430     144.779
  O      790.539      74.681     146.814
  H      789.182      72.901     145.479
  H      793.252      72.801     143.554
  H      791.562      73.161     143.122
  H      791.947      71.680     144.022
  H      796.567      77.421     147.435
  H      795.011      76.723     147.053
  H      795.494      76.922     148.721

 3  4  5  6  7  8  9  10  11  12  22  25  29  30  31  32 0
 6-311+G(2d,p)
 ****
 33  36  37 0
 6-311+G(2d,p)
 ****
 1  2  13  14  15  16  17  18  19  20  21  23  24  26 0
 3-21G
 ****
 27  28  34  35  38  39  40  41  42  43  44  45  46  47  48 0
 3-21G
 ****


