%nproc=1
%NoSave
%Mem=1900MB
#P OB98/GEN NMR

erre ene a

0 1
  C     -212.839      28.359     -45.411
  O     -214.134      28.666     -45.888
  H     -212.788      27.288     -45.195
  H     -212.632      28.914     -44.491
  H     -212.090      28.605     -46.168
  P     -214.441      30.219     -46.163
  C     -214.922      32.200     -44.533
  O     -214.483      30.859     -44.689
  C     -214.192      32.848     -43.361
  O     -212.765      32.849     -43.588
  C     -214.566      34.306     -43.122
  O     -215.803      34.456     -42.444
  C     -213.395      34.752     -42.268
  O     -213.556      34.251     -40.927
  C     -212.218      34.052     -42.984
  N     -211.582      34.892     -44.001
  C     -210.772      35.935     -43.537
  O     -210.624      36.125     -42.331
  N     -210.171      36.765     -44.454
  C     -210.352      36.566     -45.723
  N     -209.745      37.426     -46.586
  C     -211.184      35.470     -46.254
  C     -211.762      34.684     -45.352
  O     -215.984      30.228     -46.589
  O     -213.532      30.908     -47.124
  H     -214.284      34.757     -40.522
  H     -216.306      31.160     -46.660
  H     -211.315      35.351     -47.321
  H     -212.390      33.858     -45.669
  H     -211.453      33.736     -42.265
  H     -213.304      35.839     -42.197
  H     -214.560      34.882     -44.055
  H     -214.380      32.237     -42.467
  H     -209.234      38.203     -46.191
  H     -216.002      32.191     -44.348
  H     -209.973      37.460     -47.572
  H     -214.721      32.770     -45.445
  P     -216.406      35.939     -42.313
  C     -216.111      37.896     -40.632
  O     -215.593      36.675     -41.142
  O     -217.845      35.687     -41.662
  O     -216.498      36.699     -43.602
  H     -218.514      36.287     -42.042
  H     -215.465      38.264     -39.863
  H     -217.087      37.728     -40.228
  H     -216.171      38.616     -41.422

 6  7  8  9  10  11  12  13  14  15  16  26  30  31  32  33  35 0
 6-311+G(2d,p)
 ****
 37  38 0
 6-311+G(2d,p)
 ****
 1  2  3  4  5  17  18  19  20  21  22  23  24  25 0
 3-21G
 ****
 27  28  29  34  36  39  40  41  42  43  44  45  46 0
 3-21G
 ****


