%nproc=1
%NoSave
%Mem=1900MB
#P OB98/GEN NMR

erre ene a

0 1
  C     1173.244    -989.471      21.129
  O     1172.289    -988.602      20.484
  P     1172.083    -987.145      21.137
  C     1173.503    -985.839      19.358
  O     1173.364    -986.281      20.718
  C     1172.968    -984.405      19.213
  O     1173.665    -983.551      20.087
  C     1173.100    -983.858      17.820
  O     1172.096    -984.379      16.940
  C     1172.960    -982.361      18.093
  O     1171.573    -981.957      18.072
  C     1173.579    -982.206      19.509
  N     1174.869    -981.552      19.492
  C     1174.831    -980.142      19.326
  O     1173.752    -979.587      19.214
  N     1176.012    -979.460      19.292
  C     1177.149    -980.099      19.364
  N     1178.285    -979.355      19.324
  C     1177.224    -981.567      19.519
  C     1176.069    -982.224      19.556
  O     1172.298    -987.400      22.684
  O     1170.753    -986.523      20.826
  H     1171.583    -980.976      17.972
  H     1171.788    -986.753      23.233
  H     1178.193    -982.058      19.595
  H     1176.026    -983.311      19.664
  H     1172.907    -981.634      20.136
  H     1173.483    -981.756      17.319
  H     1174.106    -984.078      17.425
  H     1171.894    -984.422      19.529
  H     1178.197    -978.368      19.210
  H     1172.922    -986.535      18.733
  H     1179.203    -979.775      19.408
  H     1174.540    -985.898      19.060
  P     1172.519    -984.663      15.441
  C     1173.164    -987.117      15.824
  O     1173.631    -985.834      15.521
  O     1173.425    -983.392      15.079
  O     1171.405    -984.898      14.444
  H     1173.631    -983.404      14.117
  H     1173.997    -987.842      15.717
  H     1172.363    -987.423      15.180
  H     1172.828    -987.171      16.884
  H     1173.290    -990.403      20.605
  H     1172.941    -989.646      22.140
  H     1174.209    -989.009      21.120

 3  4  5  6  7  8  9  10  11  12  13  21  23  27  28  29  30  32 0
 6-311+G(2d,p)
 ****
 34  35 0
 6-311+G(2d,p)
 ****
 1  2  14  15  16  17  18  19  20  22  24  25  26 0
 3-21G
 ****
 31  33  36  37  38  39  40  41  42  43  44  45  46 0
 3-21G
 ****


