%nproc=1
%NoSave
%Mem=1900MB
#P OB98/GEN NMR

erre ene a

0 1
  C      305.505    -233.022    -156.041
  O      305.242    -232.117    -157.089
  P      304.389    -232.485    -158.384
  C      306.216    -231.422    -159.925
  O      304.839    -231.517    -159.581
  C      306.501    -230.121    -160.692
  O      305.603    -230.049    -161.830
  C      306.222    -228.881    -159.826
  O      307.191    -227.850    -159.962
  C      304.782    -228.537    -160.178
  O      304.427    -227.197    -159.869
  C      304.726    -228.920    -161.655
  N      299.783    -227.735    -161.769
  C      300.850    -226.971    -161.338
  N      300.538    -225.828    -160.690
  N      302.099    -227.325    -161.497
  C      302.252    -228.545    -162.055
  C      301.272    -229.392    -162.521
  C      299.897    -228.977    -162.371
  O      298.918    -229.676    -162.633
  N      301.791    -230.581    -162.967
  C      303.085    -230.471    -162.735
  N      303.406    -229.264    -162.156
  O      302.929    -232.726    -158.184
  O      305.057    -233.891    -158.822
  H      304.955    -226.613    -160.450
  H      304.344    -234.441    -159.207
  H      298.838    -227.450    -161.544
  H      303.825    -231.235    -162.940
  H      305.085    -228.111    -162.292
  H      304.134    -229.186    -159.580
  H      299.589    -225.605    -160.426
  H      306.277    -229.139    -158.763
  H      301.280    -225.384    -160.157
  H      307.525    -230.146    -161.078
  H      306.436    -232.287    -160.559
  H      306.843    -231.488    -159.033
  P      308.362    -227.437    -158.955
  C      307.264    -225.239    -158.219
  O      308.388    -225.840    -158.830
  O      309.715    -227.752    -159.751
  O      308.351    -228.161    -157.654
  H      310.375    -228.124    -159.135
  H      307.276    -224.167    -158.440
  H      307.318    -225.376    -157.136
  H      306.332    -225.672    -158.598
  H      306.095    -232.538    -155.291
  H      306.038    -233.867    -156.424
  H      304.581    -233.349    -155.612

 3  4  5  6  7  8  9  10  11  12  23  26  30  31 0
 6-311+G(2d,p)
 ****
 33  35  36  37  38 0
 6-311+G(2d,p)
 ****
 1  2  13  14  15  16  17  18  19  20  21  22  24  25 0
 3-21G
 ****
 27  28  29  32  34  39  40  41  42  43  44  45  46  47  48  49 0
 3-21G
 ****


