%nproc=1
%NoSave
%Mem=1900MB
#P OB98/GEN NMR

erre ene a

0 1
  C     -670.326     675.746    -131.115
  O     -669.596     674.724    -131.788
  P     -669.405     674.879    -133.371
  C     -670.938     672.898    -134.042
  O     -670.750     674.306    -134.034
  C     -671.319     672.422    -135.446
  O     -672.497     673.111    -135.887
  C     -670.258     672.679    -136.510
  O     -669.232     671.703    -136.488
  C     -671.094     672.573    -137.779
  O     -671.253     671.191    -138.139
  C     -672.444     673.166    -137.334
  N     -673.505     676.270    -141.210
  C     -673.424     674.892    -141.170
  N     -673.692     674.243    -142.331
  N     -673.107     674.208    -140.106
  C     -672.908     674.987    -139.012
  C     -672.959     676.358    -138.921
  C     -673.259     677.101    -140.123
  O     -673.278     678.331    -140.228
  N     -672.716     676.781    -137.636
  C     -672.552     675.667    -136.946
  N     -672.636     674.549    -137.745
  O     -668.319     673.749    -133.714
  O     -668.966     676.232    -133.824
  H     -670.399     670.883    -138.484
  H     -667.834     673.997    -134.529
  H     -673.770     676.745    -142.055
  H     -672.378     675.630    -135.881
  H     -673.287     672.583    -137.714
  H     -670.632     673.069    -138.640
  H     -674.061     674.701    -143.150
  H     -669.858     673.695    -136.423
  H     -673.669     673.231    -142.319
  H     -671.553     671.348    -135.382
  H     -671.738     672.627    -133.345
  H     -670.008     672.413    -133.711
  P     -667.775     672.174    -136.979
  C     -668.262     672.097    -139.532
  O     -668.019     672.893    -138.388
  O     -667.051     670.799    -137.366
  O     -667.008     672.957    -135.958
  H     -666.086     670.891    -137.283
  H     -668.854     671.208    -139.280
  H     -667.313     671.784    -139.963
  H     -668.815     672.686    -140.267
  H     -670.377     675.519    -130.071
  H     -671.316     675.801    -131.517
  H     -669.833     676.686    -131.252

 3  4  5  6  7  8  9  10  11  12  23  26  30  31  33  0
 6-311+G(2d,p)
 ****
 35  36  37  38 0
 6-311+G(2d,p)
 ****
 1  2  13  14  15  16  17  18  19  20  21  22  24  25  27  28  29 0
 3-21G
 ****
 32  34  39  40  41  42  43  44  45  46  47  48  49 0
 3-21G
 ****


