%nproc=1
%NoSave
%Mem=1900MB
#P OB98/GEN NMR

erre ene a

0 1
  C     -244.773      -4.142      96.129
  O     -243.664      -3.896      95.287
  H     -245.226      -3.186      96.407
  H     -244.448      -4.653      97.039
  H     -245.520      -4.750      95.611
  P     -242.919      -5.174      94.670
  C     -244.685      -5.205      92.752
  O     -243.310      -5.215      93.112
  C     -244.828      -4.898      91.259
  O     -244.278      -3.574      91.007
  C     -244.080      -5.888      90.362
  O     -244.840      -6.109      89.169
  C     -242.793      -5.148      90.021
  O     -242.177      -5.595      88.824
  C     -243.302      -3.705      89.948
  N     -242.233      -2.724      90.113
  C     -241.279      -2.640      89.104
  O     -241.313      -3.279      88.050
  N     -240.241      -1.773      89.334
  C     -240.057      -1.015      90.462
  O     -239.094      -0.276      90.619
  C     -241.095      -1.157      91.496
  C     -242.113      -1.990      91.278
  O     -243.736      -6.408      95.283
  O     -241.454      -5.265      94.940
  H     -243.339      -6.696      96.127
  H     -241.373      -5.054      88.677
  H     -239.542      -1.697      88.613
  H     -240.974      -0.581      92.406
  H     -242.887      -2.122      92.029
  H     -243.822      -3.531      88.997
  H     -242.070      -5.263      90.837
  H     -243.879      -6.841      90.853
  H     -245.895      -4.861      91.004
  H     -245.201      -4.432      93.332
  H     -245.127      -6.181      92.982
  P     -245.216      -7.626      88.803
  C     -247.711      -8.067      89.456
  O     -246.792      -7.621      88.474
  O     -245.109      -8.333      90.230
  O     -244.342      -8.206      87.740
  H     -245.418      -7.770      90.966
  H     -248.707      -7.996      89.071
  H     -247.622      -7.457      90.331
  H     -247.498      -9.085      89.708

 6  7  8  9  10  11  12  13  14  15  16  27  31  32  33  34  35 0
 6-311+G(2d,p)
 ****
 36  37 0
 6-311+G(2d,p)
 ****
 1  2  3  4  5  17  18  19  20  21  22  23  24  25 0
 3-21G
 ****
 26  28  29  30  38  39  40  41  42  43  44  45 0
 3-21G
 ****


