%nproc=1
%NoSave
%Mem=1900MB
#P OB98/GEN NMR

erre ene a

0 1
  C     -109.739    -303.818     131.975
  O     -108.863    -303.489     130.915
  H     -109.253    -304.511     132.670
  H     -109.999    -302.903     132.513
  H     -110.654    -304.268     131.580
  P     -108.280    -304.720     130.067
  C     -106.022    -304.514     131.326
  O     -107.099    -305.359     130.948
  C     -105.565    -304.843     132.742
  O     -106.703    -304.896     133.629
  C     -104.874    -306.192     132.894
  O     -103.519    -306.145     132.462
  C     -104.977    -306.393     134.399
  O     -103.943    -305.639     135.060
  C     -106.354    -305.790     134.719
  N     -108.834    -308.871     137.994
  C     -107.813    -307.997     138.172
  N     -107.200    -307.223     137.256
  C     -107.742    -307.397     136.041
  C     -108.784    -308.252     135.704
  C     -109.332    -309.023     136.746
  N     -110.356    -309.921     136.550
  N     -109.081    -308.156     134.363
  C     -108.241    -307.256     133.892
  N     -107.406    -306.775     134.869
  O     -107.496    -304.005     128.863
  O     -109.297    -305.686     129.559
  H     -103.095    -305.917     134.661
  H     -107.594    -304.548     128.057
  H     -107.449    -307.906     139.193
  H     -108.201    -306.923     132.864
  H     -106.322    -305.184     135.632
  H     -104.867    -307.436     134.700
  H     -105.431    -306.983     132.382
  H     -104.912    -304.027     133.082
  H     -106.350    -303.470     131.284
  H     -110.836    -310.290     137.354
  H     -110.730    -310.019     135.609
  H     -105.197    -304.654     130.617
  P     -103.110    -307.059     131.205
  C     -100.862    -307.505     132.426
  O     -101.987    -308.065     131.755
  O     -102.281    -306.049     130.282
  O     -104.252    -307.677     130.473
  H     -102.320    -306.345     129.350
  H     -100.203    -308.290     132.734
  H     -101.194    -306.960     133.285
  H     -100.344    -306.844     131.763

 6  7  8  9  10  11  12  13  14  15  25  28  32  33  34  35 0
 6-311+G(2d,p)
 ****
 36  39  40 0
 6-311+G(2d,p)
 ****
 1  2  3  4  5  16  17  18  19  20  21  22  23  24 0
 3-21G
 ****
 26  27  29  30  31  37  38  41  42  43  44  45  46  47  48 0
 3-21G
 ****


