%nproc=1
%NoSave
%Mem=1900MB
#P OB98/GEN NMR

erre ene a

0 1
  C     -176.962    -172.772    -187.644
  O     -177.562    -173.930    -188.200
  P     -176.605    -175.061    -188.808
  C     -175.439    -175.868    -186.631
  O     -175.310    -175.173    -187.865
  C     -174.063    -176.161    -186.029
  O     -174.226    -176.761    -184.716
  C     -173.220    -177.128    -186.869
  O     -171.832    -176.775    -186.746
  C     -173.410    -178.460    -186.173
  O     -172.332    -179.354    -186.448
  C     -173.503    -178.009    -184.713
  N     -173.152    -180.681    -180.439
  C     -172.423    -179.582    -180.849
  N     -171.406    -179.202    -180.045
  N     -172.673    -178.913    -181.944
  C     -173.715    -179.415    -182.651
  C     -174.521    -180.488    -182.340
  C     -174.226    -181.222    -181.131
  O     -174.815    -182.219    -180.726
  N     -175.498    -180.669    -183.283
  C     -175.263    -179.740    -184.187
  N     -174.169    -178.977    -183.867
  O     -176.042    -174.375    -190.139
  O     -177.285    -176.353    -189.118
  H     -172.644    -180.250    -186.224
  H     -176.476    -174.763    -190.922
  H     -172.914    -181.168    -179.590
  H     -175.830    -179.592    -185.097
  H     -172.513    -177.816    -184.288
  H     -174.342    -178.928    -186.509
  H     -171.121    -179.714    -179.225
  H     -173.492    -177.166    -187.928
  H     -170.829    -178.427    -180.346
  H     -173.533    -175.212    -185.882
  H     -175.959    -176.810    -186.806
  H     -176.035    -175.269    -185.935
  P     -171.195    -175.989    -187.993
  C     -171.882    -173.692    -186.984
  O     -171.970    -174.591    -188.070
  O     -171.744    -176.800    -189.259
  O     -169.704    -175.909    -187.969
  H     -171.140    -176.691    -190.017
  H     -171.394    -172.774    -187.322
  H     -171.318    -174.108    -186.144
  H     -172.894    -173.447    -186.643
  H     -177.724    -172.114    -187.282
  H     -176.387    -172.272    -188.396
  H     -176.322    -173.056    -186.835

 3  4  5  6  7  8  9  10  11  12  23  26  30  31 0
 6-311+G(2d,p)
 ****
 33  35  36  37  38 0
 6-311+G(2d,p)
 ****
 1  2  13  14  15  16  17  18  19  20  21  22  24  25 0
 3-21G
 ****
 27  28  29  32  34  39  40  41  42  43  44  45  46  47  48  49 0
 3-21G
 ****


