%nproc=1
%NoSave
%Mem=1900MB
#P OB98/GEN NMR

erre ene a

0 1
  C       87.725     100.704      80.584
  O       87.717     101.300      79.302
  H       86.721     100.362      80.848
  H       88.396      99.840      80.568
  H       88.084     101.418      81.330
  P       86.759     102.571      79.103
  C       84.816     100.999      78.378
  O       85.267     102.004      79.276
  C       84.395     101.650      77.065
  O       84.210     100.639      76.048
  C       83.071     102.401      77.148
  O       83.218     103.705      77.682
  C       82.680     102.447      75.681
  O       83.451     103.455      75.003
  C       83.097     101.047      75.206
  N       78.521      99.598      73.424
  C       79.350     100.605      73.069
  N       80.561     100.910      73.578
  C       80.902     100.045      74.546
  C       80.165      98.968      75.010
  C       78.913      98.756      74.408
  N       78.051      97.752      74.787
  N       80.837      98.322      76.030
  C       81.966      98.989      76.162
  N       82.038     100.057      75.310
  O       86.848     102.874      77.534
  O       87.069     103.761      79.947
  H       83.300     103.333      74.046
  H       86.484     103.758      77.337
  H       78.991     101.252      72.274
  H       82.754      98.745      76.864
  H       83.446     101.041      74.166
  H       81.626     102.694      75.532
  H       82.317     101.829      77.700
  H       85.204     102.312      76.733
  H       83.961     100.480      78.824
  H       77.121      97.773      74.402
  H       78.268      97.214      75.614
  H       85.622     100.281      78.202
  P       82.336     104.082      78.971
  C       80.662     105.296      77.400
  O       80.844     104.342      78.440
  O       82.856     105.547      79.344
  O       82.464     103.127      80.112
  H       82.813     105.696      80.308
  H       79.623     105.361      77.153
  H       81.215     104.992      76.536
  H       81.011     106.253      77.729

 6  7  8  9  10  11  12  13  14  15  25  28  32  33  34  35 0
 6-311+G(2d,p)
 ****
 36  39  40 0
 6-311+G(2d,p)
 ****
 1  2  3  4  5  16  17  18  19  20  21  22  23  24 0
 3-21G
 ****
 26  27  29  30  31  37  38  41  42  43  44  45  46  47 0
 3-21G
 ****
 48 0
 3-21G
 ****


