%nproc=1
%NoSave
%Mem=1900MB
#P OB98/GEN NMR

erre ene a

0 1
  C       16.390    -102.269      -4.934
  O       15.256    -101.884      -5.678
  H       16.070    -102.511      -3.915
  H       17.115    -101.453      -4.883
  H       16.855    -103.155      -5.376
  P       15.458    -101.289      -7.159
  C       15.085     -98.794      -6.686
  O       16.055     -99.806      -6.929
  C       15.612     -97.409      -7.069
  O       16.673     -97.022      -6.154
  C       16.176     -97.333      -8.494
  O       15.667     -96.164      -9.145
  C       17.679     -97.207      -8.281
  O       18.331     -96.588      -9.387
  C       17.724     -96.439      -6.952
  N       19.022     -96.527      -6.287
  C       20.018     -95.654      -6.739
  O       19.792     -94.891      -7.681
  N       21.253     -95.695      -6.148
  C       21.494     -96.566      -5.219
  N       22.745     -96.562      -4.677
  C       20.490     -97.539      -4.739
  C       19.282     -97.457      -5.307
  O       14.247    -101.350      -8.029
  O       16.713    -102.091      -7.747
  H       19.259     -96.385      -9.126
  H       16.712    -102.024      -8.735
  H       20.740     -98.253      -3.970
  H       18.477     -98.126      -5.012
  H       17.488     -95.377      -7.108
  H       18.113     -98.207      -8.147
  H       15.930     -98.200      -9.100
  H       14.801     -96.679      -6.920
  H       23.405     -95.879      -5.032
  H       14.812     -98.818      -5.624
  H       23.049     -97.198      -3.953
  H       14.199     -99.017      -7.292
  P       14.856     -96.413     -10.509
  C       16.506     -95.108     -12.025
  O       15.905     -96.360     -11.725
  O       14.005     -95.067     -10.677
  O       13.980     -97.624     -10.476
  H       13.084     -95.214     -10.388
  H       17.177     -95.223     -12.851
  H       17.048     -94.759     -11.171
  H       15.746     -94.399     -12.279

 6  7  8  9  10  11  12  13  14  15  16  26  30  31  32  33  35 0
 6-311+G(2d,p)
 ****
 37  38 0
 6-311+G(2d,p)
 ****
 1  2  3  4  5  17  18  19  20  21  22  23  24  25 0
 3-21G
 ****
 27  28  29  34  36  39  40  41  42  43  44  45  46 0
 3-21G
 ****


