%nproc=1
%NoSave
%Mem=1900MB
#P OB98/GEN NMR

erre ene a

0 1
  C     1675.599     819.124     569.299
  O     1675.221     820.301     568.614
  H     1675.127     819.127     570.287
  H     1676.677     819.094     569.422
  H     1675.261     818.236     568.749
  P     1675.593     820.409     567.059
  C     1673.031     820.112     566.730
  O     1674.338     819.830     566.251
  C     1671.990     819.429     565.838
  O     1671.920     820.167     564.581
  C     1672.313     817.970     565.495
  O     1671.066     817.259     565.424
  C     1672.896     818.051     564.102
  O     1672.805     816.872     563.358
  C     1672.080     819.206     563.513
  N     1672.712     819.811     562.345
  C     1672.651     819.100     561.142
  O     1672.027     818.067     560.979
  N     1673.343     819.650     560.095
  C     1674.105     820.794     560.135
  O     1674.714     821.222     559.157
  C     1674.121     821.491     561.438
  C     1673.444     820.971     562.460
  O     1676.713     819.269     566.884
  O     1676.057     821.750     566.603
  H     1677.600     819.649     567.051
  H     1671.854     816.626     563.271
  H     1673.303     819.161     559.220
  H     1674.729     822.395     561.509
  H     1673.464     821.462     563.430
  H     1671.074     818.863     563.241
  H     1673.960     818.353     564.168
  H     1672.990     817.483     566.191
  H     1670.998     819.535     566.311
  H     1672.865     821.185     566.711
  H     1672.951     819.734     567.758
  P     1670.958     815.934     566.347
  C     1668.453     816.506     566.880
  O     1669.754     816.233     567.376
  O     1672.274     816.038     567.233
  O     1670.834     814.677     565.548
  H     1672.513     816.958     567.444
  H     1667.788     816.679     567.700
  H     1668.106     815.670     566.310
  H     1668.484     817.375     566.256

 6  7  8  9  10  11  12  13  14  15  16  27  31  32  33  34  35 0
 6-311+G(2d,p)
 ****
 36  37 0
 6-311+G(2d,p)
 ****
 1  2  3  4  5  17  18  19  20  21  22  23  24  25 0
 3-21G
 ****
 26  28  29  30  38  39  40  41  42  43  44  45 0
 3-21G
 ****


