%nproc=1
%NoSave
%Mem=1900MB
#P OB98/GEN NMR

erre ene a

0 1
  C      -24.432      73.393     -30.474
  O      -23.172      73.074     -29.890
  P      -22.385      71.806     -30.474
  C      -21.941      70.557     -28.211
  O      -22.605      70.584     -29.460
  C      -21.851      69.120     -27.665
  O      -23.165      68.725     -27.193
  C      -21.452      68.059     -28.685
  O      -21.001      66.897     -27.985
  C      -22.775      67.761     -29.354
  O      -22.744      66.521     -30.054
  C      -23.769      67.842     -28.174
  N      -25.105      68.348     -28.557
  C      -25.993      67.470     -29.173
  O      -25.735      66.294     -29.422
  N      -27.201      67.996     -29.542
  C      -27.618      69.274     -29.324
  O      -28.675      69.717     -29.753
  C      -26.699      70.117     -28.548
  C      -25.503      69.629     -28.216
  O      -20.848      72.201     -30.287
  O      -22.717      71.495     -31.894
  H      -21.904      66.511     -30.568
  H      -20.454      72.441     -31.146
  H      -27.829      67.390     -30.049
  H      -27.023      71.119     -28.296
  H      -24.804      70.247     -27.658
  H      -23.915      66.857     -27.713
  H      -23.001      68.542     -30.087
  H      -20.693      68.381     -29.403
  H      -21.173      69.104     -26.805
  H      -22.462      71.201     -27.499
  H      -20.930      70.966     -28.323
  P      -19.426      66.734     -27.734
  C      -19.266      65.648     -30.058
  O      -18.747      66.632     -29.184
  O      -19.023      65.683     -26.756
  O      -18.988      68.198     -27.247
  H      -18.130      68.148     -26.787
  H      -19.134      65.989     -31.088
  H      -20.329      65.470     -29.876
  H      -18.713      64.716     -29.918
  H      -24.841      74.255     -29.990
  H      -25.100      72.566     -30.354
  H      -24.301      73.597     -31.516

 3  4  5  6  7  8  9  10  11  12  13  23  28  29  30  31  32 0
 6-311+G(2d,p)
 ****
 33  34 0
 6-311+G(2d,p)
 ****
 1  2  14  15  16  17  18  19  20  21  22  24  25  26  27 0
 3-21G
 ****
 35  36  37  38  39  40  41  42  43  44  45 0
 3-21G
 ****


