%nproc=1
%NoSave
%Mem=1900MB
#P OB98/GEN NMR

erre ene a

0 1
  C     -116.990     236.432     -75.303
  O     -118.244     236.273     -74.635
  P     -118.583     237.196     -73.372
  C     -120.804     238.493     -73.541
  O     -120.175     237.269     -73.191
  C     -121.252     238.482     -75.013
  O     -121.964     237.249     -75.299
  C     -122.175     239.656     -75.364
  O     -121.755     240.373     -76.524
  C     -123.551     239.013     -75.443
  O     -124.459     239.748     -76.245
  C     -123.229     237.585     -75.899
  N     -124.287     236.640     -75.526
  C     -125.115     236.198     -76.549
  O     -125.043     236.618     -77.703
  N     -126.082     235.295     -76.191
  C     -126.341     234.864     -74.924
  O     -127.248     234.090     -74.648
  C     -125.472     235.415     -73.872
  C     -124.500     236.263     -74.218
  O     -117.879     238.511     -73.320
  O     -118.141     236.272     -72.131
  H     -124.295     240.707     -76.104
  H     -117.733     236.852     -71.458
  H     -126.680     234.952     -76.925
  H     -125.663     235.113     -72.853
  H     -123.855     236.694     -73.463
  H     -123.117     237.534     -76.985
  H     -123.970     238.973     -74.432
  H     -122.178     240.413     -74.572
  H     -120.346     238.510     -75.626
  H     -120.106     239.316     -73.389
  H     -121.645     238.676     -72.862
  P     -121.195     241.873     -76.510
  C     -119.299     241.544     -78.246
  O     -120.526     242.170     -77.931
  O     -120.360     242.242     -75.331
  O     -122.534     242.754     -76.537
  H     -122.423     243.520     -75.944
  H     -118.810     242.113     -79.041
  H     -119.490     240.531     -78.605
  H     -118.637     241.507     -77.377
  H     -116.930     235.741     -76.118
  H     -116.193     236.242     -74.615
  H     -116.909     237.432     -75.676

 3  4  5  6  7  8  9  10  11  12  13  23  28  29  30  31  32 0
 6-311+G(2d,p)
 ****
 33  34 0
 6-311+G(2d,p)
 ****
 1  2  14  15  16  17  18  19  20  21  22  24  25  26  27 0
 3-21G
 ****
 35  36  37  38  39  40  41  42  43  44  45 0
 3-21G
 ****


