%nproc=1
%NoSave
%Mem=1900MB
#P OB98/GEN NMR

erre ene a

0 1
  C     -209.300    -332.029     -57.339
  O     -208.288    -332.202     -56.368
  H     -210.066    -331.363     -56.931
  H     -209.760    -332.991     -57.571
  H     -208.897    -331.578     -58.250
  P     -206.915    -332.909     -56.797
  C     -207.831    -335.317     -56.649
  O     -207.314    -334.300     -57.495
  C     -208.383    -336.481     -57.477
  O     -207.328    -336.959     -58.365
  C     -208.853    -337.685     -56.636
  O     -209.945    -338.297     -57.334
  C     -207.619    -338.566     -56.672
  O     -207.894    -339.874     -56.240
  C     -207.207    -338.378     -58.135
  N     -205.862    -338.852     -58.427
  C     -205.719    -339.783     -59.451
  O     -206.652    -340.203     -60.131
  N     -204.443    -340.234     -59.672
  C     -203.331    -339.860     -58.978
  O     -202.207    -340.280     -59.233
  C     -203.548    -338.897     -57.887
  C     -204.784    -338.444     -57.665
  O     -205.878    -333.013     -55.730
  O     -206.405    -332.026     -58.031
  H     -205.740    -331.382     -57.720
  H     -208.359    -339.858     -55.376
  H     -204.322    -340.909     -60.413
  H     -202.689    -338.596     -57.305
  H     -204.984    -337.734     -56.869
  H     -207.917    -338.875     -58.803
  H     -206.852    -338.169     -55.999
  H     -209.176    -337.400     -55.629
  H     -209.191    -336.107     -58.118
  H     -208.633    -334.884     -56.042
  H     -207.037    -335.675     -55.987
  P     -211.452    -338.305     -56.782
  C     -211.592    -340.250     -55.093
  O     -211.465    -338.845     -55.271
  O     -212.414    -339.023     -57.674
  O     -211.864    -336.763     -56.641
  H     -212.810    -336.660     -56.865
  H     -211.587    -340.479     -54.048
  H     -210.772    -340.745     -55.570
  H     -212.512    -340.583     -55.527

 6  7  8  9  10  11  12  13  14  15  16  27  31  32  33  34  35 0
 6-311+G(2d,p)
 ****
 36  37 0
 6-311+G(2d,p)
 ****
 1  2  3  4  5  17  18  19  20  21  22  23  24  25 0
 3-21G
 ****
 26  28  29  30  38  39  40  41  42  43  44  45 0
 3-21G
 ****


