%nproc=1
%NoSave
%Mem=1900MB
#P OB98/GEN NMR

erre ene a

0 1
  C       44.967     -26.317      49.476
  O       45.536     -25.399      50.387
  H       45.277     -27.326      49.760
  H       45.323     -26.115      48.463
  H       43.876     -26.267      49.503
  P       45.105     -23.858      50.298
  C       47.592     -23.212      50.099
  O       46.289     -23.085      49.543
  C       48.634     -23.203      48.984
  O       48.395     -24.301      48.075
  C       48.604     -21.947      48.123
  O       49.183     -20.844      48.789
  C       49.356     -22.427      46.893
  O       50.773     -22.362      47.095
  C       48.887     -23.895      46.779
  N       47.863     -24.066      45.748
  C       48.275     -23.867      44.435
  O       49.427     -23.574      44.120
  N       47.294     -23.956      43.484
  C       45.957     -24.079      43.731
  O       45.095     -23.905      42.875
  C       45.589     -24.347      45.129
  C       46.542     -24.316      46.062
  O       44.657     -23.237      51.579
  O       43.929     -23.860      49.209
  H       43.068     -23.801      49.666
  H       50.984     -21.412      47.204
  H       47.577     -23.770      42.532
  H       44.544     -24.522      45.355
  H       46.291     -24.476      47.106
  H       49.735     -24.550      46.541
  H       49.117     -21.824      46.016
  H       47.570     -21.719      47.839
  H       49.625     -23.343      49.435
  H       47.650     -24.160      50.645
  H       47.763     -22.386      50.798
  P       48.258     -19.666      49.357
  C       49.772     -17.923      48.227
  O       48.437     -18.385      48.410
  O       48.401     -19.391      50.816
  O       46.767     -20.148      49.017
  H       46.222     -20.077      49.824
  H       49.769     -17.070      47.581
  H       50.361     -18.701      47.788
  H       50.188     -17.651      49.174

 6  7  8  9  10  11  12  13  14  15  16  27  31  32  33  34  35 0
 6-311+G(2d,p)
 ****
 36  37 0
 6-311+G(2d,p)
 ****
 1  2  3  4  5  17  18  19  20  21  22  23  24  25 0
 3-21G
 ****
 26  28  29  30  38  39  40  41  42  43  44  45 0
 3-21G
 ****


