%nproc=1
%NoSave
%Mem=1900MB
#P OB98/GEN NMR

erre ene a

0 1
  C      674.313     -77.823     274.018
  O      675.518     -78.514     273.764
  H      674.139     -77.113     273.202
  H      674.385     -77.266     274.954
  H      673.468     -78.518     274.061
  P      675.923     -79.731     274.723
  C      676.893     -77.807     276.138
  O      676.300     -79.102     276.149
  C      678.101     -77.784     277.075
  O      677.806     -78.527     278.276
  C      679.348     -78.426     276.485
  O      679.965     -77.588     275.532
  C      680.162     -78.674     277.747
  O      680.854     -77.491     278.160
  C      679.061     -79.049     278.768
  N      678.985     -80.493     278.992
  C      680.005     -81.051     279.755
  O      680.927     -80.398     280.242
  N      679.962     -82.414     279.896
  C      679.105     -83.251     279.248
  O      679.259     -84.470     279.203
  C      678.013     -82.605     278.507
  C      678.011     -81.270     278.404
  O      676.928     -80.684     274.167
  O      674.527     -80.460     275.016
  H      674.461     -81.264     274.462
  H      681.515     -77.783     278.814
  H      680.724     -82.830     280.414
  H      677.272     -83.236     278.035
  H      677.233     -80.768     277.836
  H      679.252     -78.555     279.733
  H      680.899     -79.460     277.597
  H      679.089     -79.390     276.038
  H      678.295     -76.737     277.356
  H      676.152     -77.076     276.481
  H      677.191     -77.560     275.113
  P      680.177     -78.097     274.023
  C      682.427     -79.288     274.366
  O      681.045     -79.446     274.066
  O      680.667     -77.063     273.067
  O      678.726     -78.629     273.591
  H      678.491     -78.237     272.731
  H      682.903     -80.246     274.368
  H      682.533     -78.835     275.330
  H      682.883     -78.664     273.626

 6  7  8  9  10  11  12  13  14  15  16  27  31  32  33  34  35 0
 6-311+G(2d,p)
 ****
 36  37 0
 6-311+G(2d,p)
 ****
 1  2  3  4  5  17  18  19  20  21  22  23  24  25 0
 3-21G
 ****
 26  28  29  30  38  39  40  41  42  43  44  45 0
 3-21G
 ****


