%nproc=1
%NoSave
%Mem=1900MB
#P OB98/GEN NMR

erre ene a

0 1
  C     2144.806     250.186    1548.767
  O     2144.816     248.771    1548.963
  P     2146.210     248.053    1549.232
  C     2145.809     247.250    1551.733
  O     2146.460     248.150    1550.836
  C     2146.823     246.279    1552.288
  O     2147.851     246.974    1553.038
  C     2146.240     245.233    1553.286
  O     2145.546     244.202    1552.616
  C     2147.496     244.790    1554.016
  O     2148.233     243.818    1553.225
  C     2148.311     246.092    1554.104
  N     2148.220     246.750    1555.399
  C     2149.250     247.645    1555.723
  O     2150.207     247.853    1554.925
  N     2149.187     248.238    1556.943
  C     2148.221     247.984    1557.914
  O     2148.239     248.540    1558.986
  C     2147.203     247.031    1557.523
  C     2147.197     246.457    1556.337
  O     2147.228     249.142    1548.616
  O     2146.295     246.676    1548.664
  H     2146.866     250.051    1548.623
  H     2147.659     243.042    1553.098
  H     2149.907     248.874    1557.183
  H     2146.381     246.813    1558.241
  H     2146.472     245.747    1556.026
  H     2149.399     245.924    1553.883
  H     2147.294     244.356    1554.995
  H     2145.578     245.764    1553.999
  H     2147.335     245.735    1551.458
  H     2145.027     246.675    1551.189
  H     2145.343     247.822    1552.544
  P     2144.430     243.424    1553.487
  C     2142.729     245.388    1553.130
  O     2143.397     244.590    1554.023
  O     2145.276     242.966    1554.765
  O     2143.740     242.303    1552.707
  H     2145.867     243.643    1555.088
  H     2141.869     245.802    1553.682
  H     2142.355     244.824    1552.263
  H     2143.365     246.207    1552.786
  H     2143.802     250.516    1548.599
  H     2145.409     250.433    1547.918
  H     2145.199     250.669    1549.637

 3  4  5  6  7  8  9  10  11  12  13  24  28  29  30  31  32 0
 6-311+G(2d,p)
 ****
 33  34 0
 6-311+G(2d,p)
 ****
 1  2  14  15  16  17  18  19  20  21  22  23  25  26  27 0
 3-21G
 ****
 35  36  37  38  39  40  41  42  43  44  45 0
 3-21G
 ****


