%nproc=1
%NoSave
%Mem=1900MB
#P OB98/GEN NMR

erre ene a

0 1
  C      105.399    -256.961    -231.760
  O      105.543    -255.726    -231.039
  P      105.677    -254.297    -231.753
  C      107.432    -252.983    -233.117
  O      107.186    -254.108    -232.281
  C      108.809    -253.064    -233.791
  O      109.864    -253.077    -232.776
  C      109.017    -254.311    -234.679
  O      109.763    -253.882    -235.814
  C      109.837    -255.211    -233.764
  O      110.523    -256.242    -234.456
  C      110.748    -254.164    -233.121
  N      111.490    -254.619    -231.947
  C      112.882    -254.742    -232.065
  O      113.455    -254.536    -233.126
  N      113.601    -255.126    -230.954
  C      112.988    -255.370    -229.839
  N      113.765    -255.740    -228.777
  C      111.531    -255.270    -229.673
  C      110.853    -254.891    -230.755
  O      105.194    -253.160    -230.916
  O      104.815    -254.415    -233.102
  H      104.385    -253.547    -233.277
  H      111.121    -255.815    -235.106
  H      111.066    -255.472    -228.721
  H      109.774    -254.764    -230.710
  H      111.454    -253.777    -233.868
  H      109.170    -255.680    -233.038
  H      108.077    -254.754    -235.022
  H      108.954    -252.151    -234.375
  H      114.769    -255.787    -228.924
  H      107.390    -252.075    -232.500
  H      113.396    -255.944    -227.859
  H      106.637    -252.919    -233.872
  P      109.193    -254.136    -237.289
  C      109.328    -256.090    -239.007
  O      109.853    -255.488    -237.846
  O      109.966    -253.018    -238.149
  O      107.716    -253.981    -237.462
  H      109.441    -252.798    -238.935
  H      110.153    -256.394    -239.655
  H      108.671    -255.419    -239.568
  H      108.760    -256.991    -238.721
  H      105.329    -257.773    -231.066
  H      106.249    -257.105    -232.393
  H      104.512    -256.924    -232.357

 3  4  5  6  7  8  9  10  11  12  13  24  27  28  29  30  32 0
 6-311+G(2d,p)
 ****
 34  35 0
 6-311+G(2d,p)
 ****
 1  2  14  15  16  17  18  19  20  21  22  23  25  26 0
 3-21G
 ****
 31  33  36  37  38  39  40  41  42  43  44  45  46 0
 3-21G
 ****


