%nproc=1
%NoSave
%Mem=1900MB
#P OB98/GEN NMR

erre ene a

0 1
  C      186.906     618.325    -132.482
  O      186.099     619.261    -131.788
  H      187.252     617.568    -131.775
  H      187.777     618.828    -132.916
  H      186.328     617.834    -133.269
  P      185.469     620.449    -132.660
  C      186.372     622.117    -130.874
  O      186.266     621.783    -132.252
  C      187.375     623.249    -130.692
  O      188.722     622.734    -130.820
  C      187.261     624.352    -131.744
  O      186.190     625.242    -131.481
  C      188.635     624.998    -131.634
  O      188.681     625.949    -130.556
  C      189.545     623.807    -131.334
  N      193.593     624.726    -134.306
  C      193.178     625.290    -133.150
  N      192.091     624.977    -132.408
  C      191.426     623.946    -132.964
  C      191.733     623.271    -134.133
  C      192.878     623.694    -134.817
  N      193.293     623.144    -136.007
  N      190.786     622.300    -134.395
  C      189.923     622.382    -133.400
  N      190.274     623.363    -132.506
  O      184.024     620.656    -131.999
  O      185.377     620.183    -134.124
  H      189.618     626.019    -130.295
  H      183.351     620.208    -132.543
  H      193.788     626.101    -132.769
  H      189.040     621.770    -133.281
  H      190.287     624.042    -130.561
  H      188.890     625.527    -132.554
  H      187.159     623.907    -132.740
  H      187.259     623.664    -129.682
  H      186.707     621.239    -130.312
  H      185.384     622.415    -130.509
  H      194.085     623.535    -136.478
  H      192.700     622.452    -136.454
  P      185.843     626.335    -132.595
  C      186.554     628.277    -130.997
  O      186.710     627.649    -132.264
  O      184.348     626.775    -132.242
  O      185.968     625.852    -133.996
  H      183.851     626.960    -133.073
  H      187.198     629.130    -130.940
  H      186.809     627.585    -130.222
  H      185.538     628.589    -130.876

 6  7  8  9  10  11  12  13  14  15  25  28  32  33  34  35 0
 6-311+G(2d,p)
 ****
 36  37  40 0
 6-311+G(2d,p)
 ****
 1  2  3  4  5  16  17  18  19  20  21  22  23  24 0
 3-21G
 ****
 26  27  29  30  31  38  39 41  42  43  44  45  46  47  48 0
 3-21G
 ****


