%nproc=1
%NoSave
%Mem=1900MB
#P OB98/GEN NMR

erre ene a

0 1
  C      431.197    -728.332     539.755
  O      432.374    -728.012     539.031
  P      432.516    -728.591     537.537
  C      432.290    -731.077     536.794
  O      432.886    -730.145     537.692
  C      432.357    -732.488     537.378
  O      431.369    -732.659     538.418
  C      432.068    -733.594     536.372
  O      433.211    -733.907     535.578
  C      431.743    -734.750     537.300
  O      432.957    -735.339     537.819
  C      430.963    -734.045     538.424
  N      426.654    -735.577     540.582
  C      427.918    -735.463     541.122
  N      428.063    -735.875     542.410
  N      428.945    -734.993     540.480
  C      428.657    -734.625     539.196
  C      427.437    -734.691     538.556
  C      426.312    -735.228     539.287
  O      425.180    -735.400     538.843
  N      427.530    -734.228     537.269
  C      428.800    -733.876     537.131
  N      429.531    -734.142     538.262
  O      433.879    -727.929     537.014
  O      431.357    -728.286     536.644
  H      433.470    -735.640     537.048
  H      433.922    -727.988     536.038
  H      425.886    -735.952     541.129
  H      429.230    -733.454     536.236
  H      431.226    -734.460     539.411
  H      431.183    -735.551     536.796
  H      427.324    -736.302     542.945
  H      431.194    -733.357     535.755
  H      429.003    -735.859     542.812
  H      433.352    -732.618     537.836
  H      432.803    -731.045     535.841
  H      431.246    -730.783     536.623
  P      432.993    -734.967     534.404
  C      432.053    -737.400     534.400
  O      432.700    -736.362     535.133
  O      434.471    -735.148     533.797
  O      432.003    -734.549     533.356
  H      434.422    -735.426     532.866
  H      432.178    -738.337     534.939
  H      432.494    -737.512     533.404
  H      430.986    -737.172     534.301
  H      431.241    -727.882     540.725
  H      431.119    -729.394     539.858
  H      430.342    -727.961     539.229

 3  4  5  6  7  8  9  10  11  12  23  26  30  31 0
 6-311+G(2d,p)
 ****
 33  35  36  37  38 0
 6-311+G(2d,p)
 ****
 1  2  13  14  15  16  17  18  19  20  21  22  24  25 0
 3-21G
 ****
 27  28  29  32  34  39  40  41  42  43  44  45  46  47  48  49 0
 3-21G
 ****


