%nproc=1
%NoSave
%Mem=1900MB
#P OB98/GEN NMR

erre ene a

0 1
  C      851.115     237.291    1100.226
  O      851.614     237.331    1098.906
  H      850.832     238.302    1100.527
  H      851.890     236.927    1100.907
  H      850.233     236.646    1100.288
  P      851.894     235.917    1098.200
  C      849.647     236.004    1096.885
  O      851.068     235.933    1096.820
  C      849.143     237.272    1096.198
  O      849.326     238.413    1097.071
  C      849.871     237.609    1094.903
  O      849.350     236.879    1093.801
  C      849.549     239.092    1094.783
  O      848.190     239.253    1094.312
  C      849.669     239.561    1096.233
  N      853.034     243.319    1095.731
  C      851.766     243.183    1095.189
  N      851.343     244.181    1094.397
  N      850.988     242.142    1095.411
  C      851.552     241.216    1096.214
  C      852.792     241.256    1096.823
  C      853.638     242.389    1096.578
  O      854.744     242.573    1097.047
  N      853.010     240.131    1097.570
  C      851.909     239.416    1097.425
  N      850.992     240.025    1096.600
  O      851.076     234.875    1099.109
  O      853.326     235.534    1098.083
  H      847.908     240.147    1094.572
  H      851.578     234.043    1099.150
  H      853.587     244.127    1095.527
  H      851.720     238.458    1097.882
  H      848.960     240.359    1096.477
  H      850.196     239.608    1094.075
  H      851.905     244.987    1094.144
  H      850.962     237.480    1095.000
  H      850.395     244.120    1094.008
  H      848.074     237.152    1096.026
  H      849.339     236.010    1097.933
  H      849.229     235.110    1096.405
  P      850.368     236.492    1092.606
  C      850.345     233.884    1092.546
  O      849.812     235.099    1092.018
  O      851.686     236.054    1093.399
  O      850.627     237.575    1091.619
  H      852.467     236.148    1092.813
  H      849.882     233.051    1092.061
  H      850.152     233.837    1093.597
  H      851.401     233.854    1092.376

 6  7  8  9  10  11  12  13  14  15  26  29  33  34 0
 6-311+G(2d,p)
 ****
 36  38  39  40  41 0
 6-311+G(2d,p)
 ****
 1  2  3  4  5  16  17  18  19  20  21  22  23  24  25 0
 3-21G
 ****
 27  28  30  31  32  35  37  42  43  44  45  46  47 0
 3-21G
 ****
 48  49 0
 3-21G
 ****


