%nproc=1
%NoSave
%Mem=1900MB
#P OB98/GEN NMR

erre ene a

0 1
  C     -151.663      58.882     -15.005
  O     -151.727      59.310     -16.349
  H     -151.002      59.555     -14.454
  H     -151.252      57.869     -14.952
  H     -152.653      58.906     -14.540
  P     -152.773      58.604     -17.335
  C     -153.285      56.186     -18.084
  O     -152.476      57.031     -17.277
  C     -152.435      55.096     -18.749
  O     -151.556      55.727     -19.731
  C     -151.533      54.312     -17.774
  O     -151.379      52.992     -18.314
  C     -150.242      55.106     -17.878
  O     -149.152      54.447     -17.287
  C     -150.207      55.331     -19.396
  N     -149.248      56.326     -19.861
  C     -147.963      55.891     -20.168
  O     -147.579      54.723     -20.079
  N     -147.091      56.861     -20.591
  C     -147.377      58.186     -20.749
  O     -146.565      59.003     -21.160
  C     -148.749      58.585     -20.400
  C     -149.611      57.653     -19.985
  O     -152.860      59.180     -18.709
  O     -154.169      58.730     -16.557
  H     -154.695      59.457     -16.943
  H     -148.425      55.093     -17.148
  H     -146.156      56.563     -20.822
  H     -149.007      59.632     -20.502
  H     -150.632      57.917     -19.731
  H     -150.017      54.382     -19.909
  H     -150.343      56.056     -17.345
  H     -151.946      54.249     -16.764
  H     -153.097      54.422     -19.305
  H     -153.763      56.803     -18.852
  H     -154.059      55.729     -17.460
  P     -152.081      51.693     -17.684
  C     -151.900      50.328     -15.489
  O     -151.580      51.539     -16.166
  O     -151.907      50.453     -18.503
  O     -153.630      52.076     -17.541
  H     -154.171      51.265     -17.571
  H     -151.508      50.361     -14.494
  H     -151.470      49.501     -16.015
  H     -152.963      50.212     -15.450

 6  7  8  9  10  11  12  13  14  15  16  27  31  32  33  34  35 0
 6-311+G(2d,p)
 ****
 36  37 0
 6-311+G(2d,p)
 ****
 1  2  3  4  5  17  18  19  20  21  22  23  24  25 0
 3-21G
 ****
 26  28  29  30  38  39  40  41  42  43  44  45 0
 3-21G
 ****


