%nproc=1
%NoSave
%Mem=1900MB
#P OB98/GEN NMR

erre ene a

0 1
  C     -179.426     652.452     243.934
  O     -178.216     652.333     244.671
  P     -178.071     651.257     245.848
  C     -179.815     652.269     247.534
  O     -178.469     651.964     247.217
  C     -180.002     652.189     249.055
  O     -180.151     650.808     249.464
  C     -178.804     652.773     249.797
  O     -179.042     654.138     250.135
  C     -178.687     651.871     251.008
  O     -179.630     652.260     252.025
  C     -179.089     650.500     250.419
  N     -178.055     649.720     249.701
  C     -176.984     649.178     250.415
  O     -176.853     649.296     251.627
  N     -176.038     648.527     249.665
  C     -176.096     648.327     248.314
  O     -175.149     647.961     247.629
  C     -177.365     648.671     247.672
  C     -178.262     649.360     248.378
  O     -176.486     651.080     245.968
  O     -178.770     649.956     245.617
  H     -180.528     652.185     251.638
  H     -176.192     650.277     245.497
  H     -175.197     648.263     250.151
  H     -177.511     648.399     246.630
  H     -179.199     649.663     247.911
  H     -179.515     649.844     251.181
  H     -177.700     651.948     251.463
  H     -177.893     652.676     249.200
  H     -180.925     652.720     249.331
  H     -180.483     651.571     247.027
  H     -180.061     653.275     247.176
  P     -178.076     655.274     249.552
  C     -176.294     655.344     251.393
  O     -177.434     655.970     250.844
  O     -178.701     656.202     248.563
  O     -176.868     654.440     248.919
  H     -177.004     654.346     247.941
  H     -175.854     656.006     252.142
  H     -175.547     655.142     250.617
  H     -176.589     654.409     251.884
  H     -179.321     653.222     243.198
  H     -180.226     652.701     244.599
  H     -179.642     651.523     243.450

 3  4  5  6  7  8  9  10  11  12  13  23  28  29  30  31  32 0
 6-311+G(2d,p)
 ****
 33  34 0
 6-311+G(2d,p)
 ****
 1  2  14  15  16  17  18  19  20  21  22  24  25  26  27 0
 3-21G
 ****
 35  36  37  38  39  40  41  42  43  44  45 0
 3-21G
 ****


