%nproc=1
%NoSave
%Mem=1900MB
#P OB98/GEN NMR

erre ene a

0 1
  C     -213.572    -257.995    -141.054
  O     -213.625    -257.914    -139.644
  H     -214.590    -258.104    -141.438
  H     -212.989    -258.870    -141.354
  H     -213.130    -257.088    -141.478
  P     -212.256    -257.546    -138.893
  C     -213.356    -255.971    -137.147
  O     -212.468    -256.092    -138.247
  C     -213.413    -254.523    -136.670
  O     -214.079    -253.697    -137.654
  C     -214.171    -254.323    -135.364
  O     -213.357    -254.600    -134.232
  C     -214.499    -252.842    -135.455
  O     -213.327    -252.063    -135.133
  C     -214.845    -252.687    -136.941
  N     -219.501    -250.793    -136.286
  C     -218.286    -250.343    -135.809
  N     -218.313    -249.235    -135.039
  N     -217.142    -250.928    -136.057
  C     -217.269    -252.033    -136.833
  C     -218.415    -252.575    -137.368
  C     -219.669    -251.913    -137.089
  O     -220.772    -252.256    -137.507
  N     -218.143    -253.694    -138.109
  C     -216.835    -253.839    -138.009
  N     -216.258    -252.861    -137.239
  O     -211.235    -257.269    -140.097
  O     -211.732    -258.592    -137.968
  H     -213.105    -252.260    -134.204
  H     -210.348    -257.586    -139.838
  H     -220.354    -250.311    -136.055
  H     -216.263    -254.631    -138.473
  H     -214.552    -251.709    -137.338
  H     -215.283    -252.539    -134.760
  H     -219.164    -248.764    -134.766
  H     -215.102    -254.901    -135.345
  H     -217.433    -248.867    -134.704
  H     -212.382    -254.157    -136.579
  H     -213.001    -256.608    -136.327
  H     -214.350    -256.307    -137.454
  P     -213.793    -255.823    -133.284
  C     -211.683    -257.286    -132.896
  O     -212.839    -257.046    -133.691
  O     -215.215    -256.251    -133.881
  O     -213.867    -255.499    -131.832
  H     -215.739    -256.716    -133.197
  H     -211.150    -258.127    -133.287
  H     -211.979    -257.489    -131.888
  H     -211.051    -256.423    -132.916

 6  7  8  9  10  11  12  13  14  15  26  29  33  34 0
 6-311+G(2d,p)
 ****
 36  38  39  40  41 0
 6-311+G(2d,p)
 ****
 1  2  3  4  5  16  17  18  19  20  21  22  23  24  25 0
 3-21G
 ****
 27  28  30  31  32  35  37  42  43  44  45  46  47 0
 3-21G
 ****
 48  49 0
 3-21G
 ****


