%nproc=1
%NoSave
%Mem=1900MB
#P OB98/GEN NMR

erre ene a

0 1
  C      -63.070      87.468     217.231
  O      -61.809      87.226     216.632
  P      -61.712      86.327     215.314
  C      -60.751      84.361     216.667
  O      -61.771      84.788     215.769
  C      -61.049      82.954     217.181
  O      -62.266      82.951     217.956
  C      -61.263      81.924     216.078
  O      -60.031      81.529     215.509
  C      -61.997      80.822     216.840
  O      -61.059      79.996     217.560
  C      -62.863      81.636     217.817
  N      -67.570      79.736     218.338
  C      -66.367      79.305     218.784
  N      -65.146      79.848     218.570
  C      -65.249      80.937     217.786
  C      -66.399      81.481     217.228
  C      -67.615      80.844     217.551
  N      -68.852      81.311     217.158
  N      -66.093      82.585     216.459
  C      -64.776      82.696     216.543
  N      -64.237      81.766     217.380
  O      -60.592      86.670     214.387
  O      -63.128      86.544     214.597
  H      -60.416      79.657     216.910
  H      -62.989      86.935     213.713
  H      -66.390      78.410     219.398
  H      -64.182      83.444     216.029
  H      -62.871      81.188     218.819
  H      -62.572      80.166     216.178
  H      -61.932      82.332     215.309
  H      -60.226      82.647     217.841
  H      -60.710      85.062     217.511
  H      -69.653      80.867     217.566
  H      -68.917      82.275     216.844
  H      -59.780      84.374     216.153
  P      -59.930      81.255     213.929
  C      -60.123      78.710     214.197
  O      -60.704      79.879     213.645
  O      -58.560      81.349     213.339
  O      -60.917      82.352     213.297
  H      -60.582      82.620     212.418
  H      -59.276      78.396     213.577
  H      -60.875      77.912     214.201
  H      -59.786      78.882     215.222
  H      -62.942      88.084     218.096
  H      -63.513      86.537     217.519
  H      -63.708      87.965     216.531

 3  4  5  6  7  8  9  10  11  12  22  25  29  30  31  32 0
 6-311+G(2d,p)
 ****
 33  36  37 0
 6-311+G(2d,p)
 ****
 1  2  13  14  15  16  17  18  19  20  21  23  24  26 0
 3-21G
 ****
 27  28  34  35  38  39  40  41  42  43  44  45  46  47  48 0
 3-21G
 ****


