%nproc=1
%NoSave
%Mem=1900MB
#P OB98/GEN NMR

erre ene a

0 1
  C      -59.548    -233.901     196.849
  O      -60.102    -233.886     198.146
  H      -60.315    -233.584     196.138
  H      -59.232    -234.917     196.597
  H      -58.694    -233.223     196.772
  P      -59.115    -233.874     199.405
  C      -58.021    -235.746     200.804
  O      -58.438    -235.326     199.512
  C      -57.785    -237.255     200.866
  O      -59.047    -237.956     200.915
  C      -57.057    -237.781     199.629
  O      -55.645    -237.668     199.663
  C      -57.488    -239.245     199.613
  O      -56.638    -240.039     200.457
  C      -58.907    -239.186     200.183
  N      -61.511    -242.164     196.950
  C      -60.466    -242.497     197.789
  N      -60.021    -243.772     197.710
  N      -59.900    -241.650     198.608
  C      -60.386    -240.391     198.507
  C      -61.411    -239.937     197.704
  C      -62.065    -240.897     196.839
  O      -62.992    -240.650     196.071
  N      -61.627    -238.592     197.877
  C      -60.688    -238.219     198.724
  N      -59.929    -239.280     199.155
  O      -60.110    -233.865     200.664
  O      -58.164    -232.718     199.462
  H      -55.713    -239.883     200.194
  H      -59.673    -233.452     201.429
  H      -61.926    -242.863     196.360
  H      -60.534    -237.204     199.077
  H      -59.089    -240.003     200.892
  H      -57.425    -239.673     198.609
  H      -60.344    -244.424     197.013
  H      -57.443    -237.299     198.726
  H      -59.101    -243.979     198.103
  H      -57.244    -237.499     201.789
  H      -58.814    -235.463     201.499
  H      -57.119    -235.204     201.106
  P      -54.797    -237.831     198.315
  C      -52.941    -239.519     197.625
  O      -54.122    -239.283     198.359
  O      -53.569    -236.831     198.548
  O      -55.539    -237.515     197.064
  H      -53.746    -235.973     198.119
  H      -52.630    -240.533     197.766
  H      -52.171    -238.859     197.966
  H      -53.126    -239.344     196.586

 6  7  8  9  10  11  12  13  14  15  26  29  33  34 0
 6-311+G(2d,p)
 ****
 36  38  39  40  41 0
 6-311+G(2d,p)
 ****
 1  2  3  4  5  16  17  18  19  20  21  22  23  24  25 0
 3-21G
 ****
 27  28  30  31  32  35  37  42  43  44  45  46  47 0
 3-21G
 ****
 48  49 0
 3-21G
 ****


