%nproc=1
%NoSave
%Mem=1900MB
#P OB98/GEN NMR

erre ene a

0 1
  C     -439.233     131.404     -84.116
  O     -438.729     130.191     -84.688
  P     -439.236     128.818     -84.023
  C     -438.662     127.918     -86.391
  O     -438.877     127.619     -85.016
  C     -437.422     127.200     -86.910
  O     -436.232     127.575     -86.173
  C     -437.507     125.677     -86.774
  O     -438.361     125.127     -87.760
  C     -436.031     125.291     -86.928
  O     -435.653     125.297     -88.308
  C     -435.325     126.444     -86.189
  N     -431.636     124.470     -83.239
  C     -431.718     124.670     -84.577
  N     -432.735     125.198     -85.289
  C     -433.747     125.554     -84.476
  C     -433.805     125.419     -83.097
  C     -432.687     124.849     -82.471
  N     -432.611     124.630     -81.114
  N     -435.002     125.895     -82.608
  C     -435.667     126.293     -83.680
  N     -434.947     126.113     -84.830
  O     -440.832     128.932     -84.116
  O     -438.776     128.635     -82.613
  H     -434.716     125.019     -88.361
  H     -441.211     129.083     -83.228
  H     -430.847     124.357     -85.150
  H     -436.676     126.704     -83.672
  H     -434.411     126.767     -86.705
  H     -435.808     124.304     -86.524
  H     -437.859     125.405     -85.770
  H     -437.278     127.463     -87.963
  H     -438.542     129.000     -86.531
  H     -431.801     124.141     -80.755
  H     -433.417     124.826     -80.535
  H     -439.554     127.629     -86.960
  P     -439.496     124.100     -87.269
  C     -441.154     125.243     -88.859
  O     -440.506     124.029     -88.514
  O     -440.298     124.982     -86.209
  O     -438.986     122.788     -86.773
  H     -440.478     125.882     -86.549
  H     -441.786     125.063     -89.739
  H     -440.420     126.007     -89.107
  H     -441.791     125.573     -88.036
  H     -438.825     132.242     -84.641
  H     -438.950     131.457     -83.085
  H     -440.300     131.419     -84.194

 3  4  5  6  7  8  9  10  11  12  22  25  29  30  31  32 0
 6-311+G(2d,p)
 ****
 33  36  37 0
 6-311+G(2d,p)
 ****
 1  2  13  14  15  16  17  18  19  20  21  23  24  26 0
 3-21G
 ****
 27  28  34  35  38  39  40  41  42  43  44  45  46  47  48 0
 3-21G
 ****


