%nproc=1
%NoSave
%Mem=1900MB
#P OB98/GEN NMR

erre ene a

0 1
  C      -78.058      15.753      20.994
  O      -78.632      15.789      19.702
  H      -78.771      15.288      21.680
  H      -77.834      16.761      21.351
  H      -77.144      15.152      20.981
  P      -77.889      16.653      18.570
  C      -77.375      16.309      16.063
  O      -77.859      15.714      17.266
  C      -77.888      15.555      14.835
  O      -77.113      14.357      14.627
  C      -79.327      15.080      14.964
  O      -80.281      16.120      14.952
  C      -79.403      13.977      13.919
  O      -79.707      14.453      12.612
  C      -77.963      13.411      13.947
  N      -77.906      12.090      14.560
  C      -78.283      11.027      13.746
  O      -78.668      11.165      12.585
  N      -78.247       9.789      14.326
  C      -77.926       9.525      15.625
  O      -77.953       8.395      16.097
  C      -77.560      10.691      16.444
  C      -77.566      11.903      15.884
  O      -76.549      17.207      18.948
  O      -78.962      17.774      18.183
  H      -80.640      14.746      12.624
  H      -78.537      18.520      17.697
  H      -78.508       9.006      13.748
  H      -77.303      10.520      17.481
  H      -77.301      12.780      16.469
  H      -77.571      13.323      12.925
  H      -80.164      13.236      14.175
  H      -79.435      14.587      15.938
  H      -77.762      16.198      13.957
  H      -76.281      16.259      16.084
  H      -77.680      17.359      16.023
  P      -81.849      15.869      14.776
  C      -83.992      17.248      15.284
  O      -82.634      16.987      15.624
  O      -82.317      14.452      14.854
  O      -82.081      16.371      13.260
  H      -82.779      15.810      12.870
  H      -84.381      18.009      15.928
  H      -84.567      16.353      15.401
  H      -84.048      17.578      14.268

 6  7  8  9  10  11  12  13  14  15  16  26  31  32  33  34  35 0
 6-311+G(2d,p)
 ****
 36  37 0
 6-311+G(2d,p)
 ****
 1  2  3  4  5  17  18  19  20  21  22  23  24  25 0
 3-21G
 ****
 27  28  29  30  38  39  40  41  42  43  44  45 0
 3-21G
 ****


