%nproc=1
%NoSave
%Mem=1900MB
#P OB98/GEN NMR

erre ene a

0 1
  C     -413.619       7.783    -501.522
  O     -414.173       8.027    -502.799
  H     -412.829       8.514    -501.335
  H     -413.185       6.779    -501.481
  H     -414.387       7.888    -500.752
  P     -415.319       7.020    -503.297
  C     -417.568       8.231    -502.823
  O     -416.600       7.291    -502.372
  C     -418.246       8.883    -501.619
  O     -418.966       7.884    -500.860
  C     -417.279       9.523    -500.632
  O     -416.813      10.782    -501.078
  C     -418.154       9.620    -499.396
  O     -418.979      10.794    -499.425
  C     -419.014       8.337    -499.494
  N     -418.573       7.305    -498.560
  C     -418.415       7.717    -497.240
  O     -418.629       8.869    -496.862
  N     -417.966       6.762    -496.367
  C     -417.628       5.479    -496.690
  O     -417.161       4.693    -495.872
  C     -417.828       5.097    -498.099
  C     -418.274       6.019    -498.959
  O     -414.785       5.593    -502.802
  O     -415.586       7.045    -504.764
  H     -414.407       5.102    -503.552
  H     -419.576      10.691    -500.191
  H     -417.838       7.042    -495.407
  H     -417.574       4.088    -498.385
  H     -418.408       5.768    -500.006
  H     -420.064       8.567    -499.271
  H     -417.559       9.673    -498.487
  H     -416.444       8.841    -500.425
  H     -418.969       9.624    -501.991
  H     -418.325       7.715    -503.422
  H     -417.072       8.981    -503.445
  P     -415.280      11.169    -500.818
  C     -414.579      11.225    -503.351
  O     -414.450      10.618    -502.081
  O     -414.903      10.161    -499.633
  O     -415.067      12.612    -500.513
  H     -415.342       9.299    -499.717
  H     -413.951      10.718    -504.054
  H     -414.286      12.252    -503.287
  H     -415.597      11.164    -503.674

 6  7  8  9  10  11  12  13  14  15  16  27  31  32  33  34  35 0
 6-311+G(2d,p)
 ****
 36  37 0
 6-311+G(2d,p)
 ****
 1  2  3  4  5  17  18  19  20  21  22  23  24  25 0
 3-21G
 ****
 26  28  29  30  38  39  40  41  42  43  44  45 0
 3-21G
 ****


