%nproc=1
%NoSave
%Mem=1900MB
#P OB98/GEN NMR

erre ene a

0 1
  C      155.593    -182.350     106.088
  O      156.070    -183.625     105.705
  H      156.063    -181.597     105.451
  H      155.862    -182.143     107.126
  H      154.510    -182.286     105.964
  P      155.422    -184.925     106.381
  C      154.454    -186.003     104.247
  O      154.170    -185.348     105.476
  C      154.459    -187.516     104.454
  O      153.306    -187.916     105.228
  C      154.385    -188.316     103.160
  O      155.634    -188.331     102.497
  C      153.925    -189.666     103.684
  O      155.028    -190.414     104.216
  C      152.946    -189.250     104.804
  N      151.546    -189.311     104.387
  C      150.595    -189.305     105.402
  O      150.884    -189.282     106.598
  N      149.287    -189.353     104.996
  C      148.855    -189.521     103.713
  O      147.673    -189.651     103.411
  C      149.903    -189.548     102.684
  C      151.180    -189.442     103.063
  O      155.140    -184.822     107.842
  O      156.490    -186.080     106.074
  H      155.639    -190.570     103.470
  H      156.991    -186.283     106.885
  H      148.586    -189.363     105.718
  H      149.598    -189.665     101.653
  H      151.966    -189.465     102.318
  H      153.070    -189.901     105.678
  H      153.470    -190.277     102.906
  H      153.605    -187.904     102.508
  H      155.359    -187.781     105.027
  H      155.440    -185.680     103.895
  H      153.700    -185.713     103.506
  P      155.701    -188.086     100.916
  C      156.336    -185.610     101.181
  O      155.395    -186.535     100.648
  O      154.907    -189.041     100.087
  O      157.260    -188.205     100.578
  H      157.401    -188.938      99.949
  H      156.031    -184.613     100.942
  H      157.301    -185.799     100.758
  H      156.384    -185.723     102.244

 6  7  8  9  10  11  12  13  14  15  16  26  31  32  33  34  35 0
 6-311+G(2d,p)
 ****
 36  37 0
 6-311+G(2d,p)
 ****
 1  2  3  4  5  17  18  19  20  21  22  23  24  25 0
 3-21G
 ****
 27  28  29  30  38  39  40  41  42  43  44  45 0
 3-21G
 ****


