%nproc=1
%NoSave
%Mem=1900MB
#P OB98/GEN NMR

erre ene a

0 1
  C     -639.659     328.011     203.722
  O     -640.720     328.862     203.325
  H     -639.224     328.403     204.645
  H     -638.885     327.988     202.951
  H     -640.026     326.997     203.909
  P     -641.630     328.431     202.080
  C     -640.089     328.882     200.057
  O     -640.640     327.908     200.936
  C     -639.862     328.278     198.675
  O     -638.901     327.201     198.752
  C     -641.115     327.656     198.060
  O     -641.992     328.655     197.566
  C     -640.512     326.750     197.004
  O     -640.172     327.504     195.824
  C     -639.238     326.243     197.722
  N     -639.412     324.897     198.288
  C     -638.656     323.881     197.700
  O     -637.918     324.060     196.744
  N     -638.825     322.638     198.243
  C     -639.727     322.290     199.219
  O     -639.894     321.146     199.605
  C     -640.503     323.400     199.782
  C     -640.311     324.639     199.302
  O     -642.632     329.444     201.630
  O     -642.345     327.086     202.576
  H     -639.635     328.258     196.128
  H     -643.272     327.273     202.800
  H     -638.302     321.887     197.827
  H     -641.218     323.177     200.565
  H     -640.884     325.470     199.700
  H     -638.395     326.218     197.027
  H     -641.198     325.959     196.696
  H     -641.627     327.032     198.810
  H     -639.459     329.050     198.018
  H     -639.124     329.223     200.463
  H     -640.769     329.739     200.002
  P     -643.568     328.514     197.787
  C     -644.016     328.335     195.252
  O     -644.162     327.714     196.529
  O     -644.289     329.785     198.119
  O     -643.701     327.455     198.979
  H     -644.160     327.880     199.732
  H     -644.448     327.709     194.500
  H     -642.977     328.479     195.042
  H     -644.514     329.282     195.257

 6  7  8  9  10  11  12  13  14  15  16  26  31  32  33  34  35 0
 6-311+G(2d,p)
 ****
 36  37 0
 6-311+G(2d,p)
 ****
 1  2  3  4  5  17  18  19  20  21  22  23  24  25 0
 3-21G
 ****
 27  28  29  30  38  39  40  41  42  43  44  45 0
 3-21G
 ****


