%nproc=1
%NoSave
%Mem=1900MB
#P OB98/GEN NMR

erre ene a

0 1
  C      293.091     441.567     526.987
  O      292.583     442.872     527.222
  P      293.613     443.977     527.772
  C      294.680     444.327     525.431
  O      294.874     443.918     526.780
  C      295.649     445.441     525.065
  O      295.331     446.628     525.809
  C      297.106     445.141     525.379
  O      297.709     444.332     524.382
  C      297.701     446.545     525.383
  O      297.978     446.954     524.030
  C      296.557     447.384     525.977
  N      298.824     450.414     529.339
  C      298.881     450.426     527.959
  N      299.625     451.401     527.396
  N      298.261     449.556     527.202
  C      297.523     448.669     527.902
  C      297.391     448.551     529.270
  C      298.119     449.487     530.097
  O      298.162     449.485     531.326
  N      296.540     447.529     529.604
  C      296.134     447.048     528.447
  N      296.722     447.688     527.384
  O      294.172     443.317     529.117
  O      293.027     445.326     528.012
  H      298.565     446.279     523.637
  H      294.479     444.014     529.725
  H      299.304     451.115     529.875
  H      295.416     446.245     528.334
  H      296.431     448.328     525.428
  H      298.645     446.609     525.934
  H      300.017     452.173     527.918
  H      297.211     444.700     526.375
  H      299.648     451.449     526.384
  H      295.526     445.665     523.996
  H      293.656     444.693     525.307
  H      294.820     443.458     524.774
  P      299.035     443.530     524.812
  C      297.626     441.529     525.691
  O      298.564     442.546     525.990
  O      299.911     444.639     525.563
  O      299.772     442.902     523.678
  H      300.859     444.412     525.513
  H      297.786     441.116     524.689
  H      296.614     441.936     525.756
  H      297.737     440.724     526.420
  H      292.305     440.938     526.626
  H      293.478     441.165     527.900
  H      293.873     441.615     526.258

 3  4  5  6  7  8  9  10  11  12  23  26  30  31  33  0
 6-311+G(2d,p)
 ****
 35  36  37  38 0
 6-311+G(2d,p)
 ****
 1  2  13  14  15  16  17  18  19  20  21  22  24  25  27  28  29 0
 3-21G
 ****
 32  34  39  40  41  42  43  44  45  46  47  48  49 0
 3-21G
 ****


