%nproc=1
%NoSave
%Mem=1900MB
#P OB98/GEN NMR

erre ene a

0 1
  C      -36.309     -49.292    -145.801
  O      -35.308     -50.266    -146.024
  H      -36.431     -48.700    -146.711
  H      -36.013     -48.629    -144.984
  H      -37.260     -49.775    -145.563
  P      -34.989     -51.261    -144.807
  C      -34.147     -53.111    -146.427
  O      -35.066     -52.746    -145.405
  C      -34.666     -54.339    -147.170
  O      -35.782     -53.966    -148.011
  C      -33.645     -54.969    -148.107
  O      -32.699     -55.766    -147.420
  C      -34.550     -55.764    -149.034
  O      -34.898     -57.032    -148.466
  C      -35.791     -54.869    -149.139
  N      -37.012     -55.085    -154.090
  C      -37.179     -55.966    -153.081
  N      -36.836     -55.828    -151.783
  C      -36.293     -54.619    -151.563
  C      -36.063     -53.617    -152.491
  C      -36.452     -53.885    -153.813
  N      -36.260     -52.998    -154.847
  N      -35.449     -52.534    -151.894
  C      -35.319     -52.871    -150.627
  N      -35.818     -54.120    -150.380
  O      -36.300     -51.148    -143.896
  O      -33.750     -50.945    -144.040
  H      -35.405     -56.838    -147.653
  H      -36.126     -50.548    -143.147
  H      -37.639     -56.911    -153.353
  H      -34.867     -52.255    -149.859
  H      -36.723     -55.445    -149.088
  H      -34.061     -55.951    -149.990
  H      -33.140     -54.190    -148.692
  H      -35.022     -55.070    -146.433
  H      -33.177     -53.346    -145.977
  H      -34.026     -52.267    -147.114
  H      -36.500     -53.283    -155.781
  H      -35.740     -52.148    -154.672
  P      -31.221     -55.176    -147.235
  C      -30.604     -56.449    -145.045
  O      -30.891     -55.204    -145.667
  O      -31.386     -53.618    -147.561
  O      -30.185     -55.816    -148.095
  H      -30.586     -53.287    -148.012
  H      -30.407     -56.291    -144.005
  H      -29.745     -56.889    -145.507
  H      -31.443     -57.104    -145.154

 6  7  8  9  10  11  12  13  14  15  25  28  32  33  34  35 0
 6-311+G(2d,p)
 ****
 36  37  40 0
 6-311+G(2d,p)
 ****
 1  2  3  4  5  16  17  18  19  20  21  22  23  24 0
 3-21G
 ****
 26  27  29  30  31  38  39 41  42  43  44  45  46  47  48 0
 3-21G
 ****


