%nproc=1
%NoSave
%Mem=1900MB
#P OB98/GEN NMR

erre ene a

0 1
  C     -288.769    -285.563    -298.973
  O     -287.986    -284.637    -298.252
  H     -288.103    -286.264    -299.485
  H     -289.372    -285.038    -299.721
  H     -289.421    -286.123    -298.296
  P     -288.771    -283.567    -297.350
  C     -287.369    -281.492    -298.034
  O     -287.713    -282.406    -296.999
  C     -285.857    -281.472    -298.255
  O     -285.425    -282.790    -298.703
  C     -285.388    -280.457    -299.308
  O     -284.116    -279.939    -298.893
  C     -285.168    -281.322    -300.540
  O     -284.285    -280.717    -301.486
  C     -284.627    -282.590    -299.881
  N     -282.982    -284.374    -304.294
  C     -282.692    -283.187    -303.633
  N     -281.829    -282.346    -304.252
  N     -283.203    -282.858    -302.483
  C     -284.023    -283.810    -301.969
  C     -284.393    -285.016    -302.516
  C     -283.841    -285.359    -303.812
  O     -284.077    -286.381    -304.445
  N     -285.271    -285.684    -301.694
  C     -285.425    -284.882    -300.651
  N     -284.693    -283.731    -300.775
  O     -288.951    -284.346    -295.961
  O     -290.075    -283.100    -297.899
  H     -284.035    -281.400    -302.144
  H     -289.812    -284.798    -295.935
  H     -282.569    -284.573    -305.186
  H     -286.055    -285.086    -299.795
  H     -283.584    -282.483    -299.576
  H     -286.124    -281.518    -301.041
  H     -281.365    -282.557    -305.118
  H     -286.087    -279.629    -299.483
  H     -281.570    -281.494    -303.768
  H     -285.367    -281.289    -297.294
  H     -287.705    -280.489    -297.751
  H     -287.878    -281.790    -298.962
  P     -283.670    -278.500    -299.441
  C     -281.427    -279.193    -300.555
  O     -282.072    -278.469    -299.518
  O     -283.981    -277.533    -298.193
  O     -284.391    -278.058    -300.672
  H     -284.173    -276.634    -298.516
  H     -280.367    -279.072    -300.469
  H     -281.752    -278.822    -301.505
  H     -281.675    -280.231    -300.473

 6  7  8  9  10  11  12  13  14  15  26  29  33  34 0
 6-311+G(2d,p)
 ****
 36  38  39  40  41 0
 6-311+G(2d,p)
 ****
 1  2  3  4  5  16  17  18  19  20  21  22  23  24  25 0
 3-21G
 ****
 27  28  30  31  32  35  37  42  43  44  45  46  47 0
 3-21G
 ****
 48  49 0
 3-21G
 ****


