%nproc=1
%NoSave
%Mem=1900MB
#P OB98/GEN NMR

erre ene a

0 1
  C      282.891    -321.728    -776.657
  O      284.017    -321.137    -777.304
  P      283.835    -319.755    -778.099
  C      284.839    -318.008    -776.473
  O      283.656    -318.558    -777.049
  C      284.802    -316.479    -776.573
  O      285.031    -316.025    -777.923
  C      283.454    -315.885    -776.192
  O      283.087    -315.971    -774.820
  C      283.518    -314.506    -776.807
  O      284.211    -313.585    -775.972
  C      284.327    -314.786    -778.101
  N      283.483    -314.818    -779.300
  C      282.677    -313.701    -779.509
  O      282.624    -312.751    -778.740
  N      281.903    -313.738    -780.640
  C      281.824    -314.775    -781.535
  O      281.092    -314.757    -782.517
  C      282.670    -315.938    -781.241
  C      283.454    -315.909    -780.156
  O      282.845    -319.782    -779.211
  O      285.310    -319.489    -778.671
  H      283.687    -313.467    -775.159
  H      285.217    -319.149    -779.587
  H      281.318    -312.933    -780.817
  H      282.638    -316.766    -781.927
  H      284.087    -316.748    -779.926
  H      285.085    -314.001    -778.249
  H      282.515    -314.092    -776.978
  H      282.681    -316.448    -776.736
  H      285.612    -316.074    -775.949
  H      285.721    -318.400    -776.991
  H      284.915    -318.342    -775.429
  P      281.948    -316.970    -774.277
  C      283.607    -318.108    -772.641
  O      282.665    -318.267    -773.677
  O      280.751    -317.180    -775.138
  O      281.478    -316.201    -772.934
  H      280.530    -316.381    -772.809
  H      284.013    -319.090    -772.366
  H      283.147    -317.664    -771.764
  H      284.441    -317.483    -772.988
  H      283.191    -322.638    -776.180
  H      282.133    -321.939    -777.382
  H      282.505    -321.051    -775.924

 3  4  5  6  7  8  9  10  11  12  13  23  28  29  30  31  32 0
 6-311+G(2d,p)
 ****
 33  34 0
 6-311+G(2d,p)
 ****
 1  2  14  15  16  17  18  19  20  21  22  24  25  26  27 0
 3-21G
 ****
 35  36  37  38  39  40  41  42  43  44  45 0
 3-21G
 ****


