%nproc=1
%NoSave
%Mem=1900MB
#P OB98/GEN NMR

erre ene a

0 1
  C     -148.715      47.168     -39.931
  O     -147.874      47.181     -38.794
  H     -149.602      47.774     -39.736
  H     -148.172      47.601     -40.774
  H     -149.008      46.147     -40.187
  P     -148.347      46.326     -37.522
  C     -146.928      47.686     -35.825
  O     -147.159      46.428     -36.443
  C     -145.436      47.884     -35.559
  O     -144.765      48.106     -36.832
  C     -145.111      49.074     -34.642
  O     -144.026      48.702     -33.786
  C     -144.632      50.139     -35.613
  O     -143.762      51.087     -35.003
  C     -143.956      49.286     -36.683
  N     -141.863      53.375     -38.860
  C     -141.594      52.732     -37.705
  N     -142.168      51.611     -37.223
  C     -143.058      51.117     -38.099
  C     -143.433      51.656     -39.318
  C     -142.801      52.856     -39.687
  N     -143.115      53.556     -40.830
  N     -144.421      50.887     -39.901
  C     -144.656      49.920     -39.039
  N     -143.858      50.017     -37.933
  O     -148.237      44.821     -38.060
  O     -149.710      46.639     -37.007
  H     -144.298      51.734     -34.505
  H     -149.071      44.569     -38.496
  H     -140.827      53.181     -37.078
  H     -145.405      49.147     -39.148
  H     -142.942      48.977     -36.398
  H     -145.495      50.675     -36.022
  H     -145.960      49.411     -34.037
  H     -145.032      46.954     -35.141
  H     -147.466      47.720     -34.872
  H     -142.688      54.461     -40.958
  H     -143.888      53.242     -41.399
  H     -147.309      48.482     -36.472
  P     -143.910      49.451     -32.373
  C     -141.366      49.672     -32.885
  O     -142.377      49.433     -31.911
  O     -144.614      48.433     -31.358
  O     -144.563      50.796     -32.346
  H     -145.059      48.922     -30.644
  H     -140.404      49.626     -32.419
  H     -141.508      50.641     -33.316
  H     -141.427      48.928     -33.652

 6  7  8  9  10  11  12  13  14  15  25  28  32  33  34  35 0
 6-311+G(2d,p)
 ****
 36  39  40 0
 6-311+G(2d,p)
 ****
 1  2  3  4  5  16  17  18  19  20  21  22  23  24 0
 3-21G
 ****
 26  27  29  30  31  37  38  41  42  43  44  45  46  47 0
 3-21G
 ****
 48 0
 3-21G
 ****


