%nproc=1
%NoSave
%Mem=1900MB
#P OB98/GEN NMR

erre ene a

0 1
  C     -143.997     107.702    -238.501
  O     -144.798     107.908    -237.358
  H     -143.629     106.671    -238.490
  H     -143.138     108.375    -238.480
  H     -144.569     107.857    -239.419
  P     -145.691     109.236    -237.264
  C     -143.711     110.687    -236.467
  O     -144.682     110.464    -237.479
  C     -142.651     111.672    -236.961
  O     -141.765     111.990    -235.843
  C     -141.778     111.115    -238.105
  O     -141.428     112.196    -238.979
  C     -140.555     110.642    -237.347
  O     -139.437     110.504    -238.188
  C     -140.421     111.737    -236.290
  N     -139.540     111.328    -235.203
  C     -138.241     111.824    -235.225
  O     -137.810     112.567    -236.105
  N     -137.411     111.377    -234.233
  C     -137.713     110.422    -233.310
  O     -136.906     110.002    -232.492
  C     -139.086     109.892    -233.365
  C     -139.925     110.365    -234.291
  O     -146.566     109.352    -236.059
  O     -146.528     109.246    -238.628
  H     -138.652     110.262    -237.663
  H     -147.323     109.807    -238.535
  H     -136.470     111.739    -234.230
  H     -139.356     109.120    -232.656
  H     -140.937     109.987    -234.373
  H     -140.038     112.667    -236.733
  H     -140.749     109.671    -236.884
  H     -142.269     110.320    -238.670
  H     -143.141     112.608    -237.257
  H     -143.243     109.726    -236.225
  H     -144.201     111.080    -235.570
  P     -142.234     112.477    -240.340
  C     -140.981     110.801    -241.830
  O     -142.240     111.166    -241.271
  O     -141.815     113.723    -241.053
  O     -143.762     112.604    -239.874
  H     -144.164     113.381    -240.305
  H     -141.098     109.921    -242.428
  H     -140.284     110.607    -241.042
  H     -140.616     111.601    -242.440

 6  7  8  9  10  11  12  13  14  15  16  26  31  32  33  34  35 0
 6-311+G(2d,p)
 ****
 36  37 0
 6-311+G(2d,p)
 ****
 1  2  3  4  5  17  18  19  20  21  22  23  24  25 0
 3-21G
 ****
 27  28  29  30  38  39  40  41  42  43  44  45 0
 3-21G
 ****


