%nproc=1
%NoSave
%Mem=1900MB
#P OB98/GEN NMR

erre ene a

0 1
  C       26.634      27.065      11.030
  O       26.486      28.435      11.327
  H       27.676      26.782      11.197
  H       26.385      26.888       9.980
  H       25.996      26.446      11.667
  P       25.018      29.011      11.598
  C       24.871      29.460       9.062
  O       24.634      29.968      10.368
  C       25.342      30.552       8.101
  O       25.407      30.037       6.753
  C       24.379      31.738       8.053
  O       24.560      32.706       9.071
  C       24.679      32.328       6.678
  O       25.796      33.230       6.740
  C       25.033      31.091       5.849
  N       21.787      32.254       2.081
  C       22.712      33.063       2.712
  N       22.731      34.358       2.329
  N       23.523      32.638       3.643
  C       23.324      31.345       3.990
  C       22.430      30.450       3.446
  C       21.572      30.916       2.376
  O       20.731      30.243       1.789
  N       22.517      29.220       4.053
  C       23.406      29.393       5.009
  N       23.944      30.659       4.994
  O       25.239      30.057      12.793
  O       23.986      27.988      11.961
  H       26.602      32.709       6.903
  H       24.416      30.154      13.306
  H       21.207      32.628       1.351
  H       23.716      28.633       5.718
  H       25.898      31.277       5.201
  H       23.831      32.900       6.290
  H       22.049      34.756       1.702
  H       23.342      31.388       8.058
  H       23.197      35.030       2.942
  H       26.356      30.864       8.378
  H       23.927      29.037       8.712
  H       25.598      28.644       9.099
  P       23.344      33.087      10.039
  C       22.560      35.253       8.830
  O       23.167      34.677       9.966
  O       23.959      32.838      11.495
  O       22.097      32.301       9.822
  H       23.706      31.954      11.821
  H       22.522      36.316       8.946
  H       21.566      34.870       8.724
  H       23.131      35.009       7.958

 6  7  8  9  10  11  12  13  14  15  26  29  33  34 0
 6-311+G(2d,p)
 ****
 36  38  39  40  41 0
 6-311+G(2d,p)
 ****
 1  2  3  4  5  16  17  18  19  20  21  22  23  24  25 0
 3-21G
 ****
 27  28  30  31  32  35  37  42  43  44  45  46  47 0
 3-21G
 ****
 48  49 0
 3-21G
 ****


