%nproc=1
%NoSave
%Mem=1900MB
#P OB98/GEN NMR

erre ene a

0 1
  C     -227.886    -355.914     718.151
  O     -227.342    -354.862     718.939
  P     -226.437    -355.061     720.240
  C     -228.178    -354.178     722.006
  O     -226.923    -354.027     721.359
  C     -228.540    -352.920     722.813
  O     -227.367    -352.492     723.563
  C     -228.952    -351.740     721.915
  O     -230.070    -351.015     722.409
  C     -227.654    -350.982     721.737
  O     -227.832    -349.634     721.327
  C     -226.977    -351.183     723.094
  N     -222.905    -348.119     723.468
  C     -224.251    -347.790     723.447
  N     -224.558    -346.475     723.517
  N     -225.210    -348.673     723.347
  C     -224.762    -349.943     723.201
  C     -223.464    -350.387     723.186
  C     -222.409    -349.410     723.349
  O     -221.204    -349.644     723.392
  N     -223.405    -351.748     723.031
  C     -224.660    -352.123     722.926
  N     -225.528    -351.062     723.034
  O     -224.971    -355.166     720.007
  O     -226.934    -356.479     720.833
  H     -226.963    -349.196     721.347
  H     -226.153    -356.887     721.260
  H     -222.214    -347.399     723.570
  H     -224.998    -353.141     722.794
  H     -227.308    -350.450     723.828
  H     -227.083    -351.483     720.947
  H     -223.873    -345.740     723.473
  H     -229.298    -352.101     720.940
  H     -225.523    -346.235     723.280
  H     -229.326    -353.176     723.527
  H     -228.072    -355.033     722.678
  H     -228.955    -354.423     721.277
  P     -231.601    -351.464     722.493
  C     -232.693    -349.523     721.221
  O     -232.520    -350.148     722.481
  O     -231.790    -352.019     723.982
  O     -232.000    -352.504     721.495
  H     -232.047    -352.963     723.946
  H     -233.106    -348.520     721.389
  H     -233.408    -350.097     720.620
  H     -231.746    -349.440     720.695
  H     -228.450    -355.499     717.342
  H     -228.526    -356.520     718.758
  H     -227.091    -356.515     717.761

 3  4  5  6  7  8  9  10  11  12  23  26  30  31 0
 6-311+G(2d,p)
 ****
 33  35  36  37  38 0
 6-311+G(2d,p)
 ****
 1  2  13  14  15  16  17  18  19  20  21  22  24  25 0
 3-21G
 ****
 27  28  29  32  34  39  40  41  42  43  44  45  46  47  48  49 0
 3-21G
 ****


