%nproc=1
%NoSave
%Mem=1900MB
#P OB98/GEN NMR

erre ene a

0 1
  C     -213.385     -87.631    -359.075
  O     -212.636     -88.604    -358.374
  H     -213.005     -87.568    -360.097
  H     -213.280     -86.654    -358.598
  H     -214.438     -87.925    -359.103
  P     -213.010     -88.827    -356.829
  C     -210.558     -88.507    -356.089
  O     -211.662     -89.409    -356.174
  C     -209.238     -89.282    -356.136
  O     -209.118     -89.913    -357.435
  C     -208.008     -88.396    -355.930
  O     -207.040     -89.106    -355.156
  C     -207.481     -88.188    -357.339
  O     -206.079     -87.905    -357.360
  C     -207.858     -89.509    -358.014
  N     -205.253     -89.072    -362.374
  C     -204.860     -89.345    -361.114
  N     -205.629     -89.461    -360.003
  C     -206.931     -89.311    -360.317
  C     -207.476     -89.022    -361.551
  C     -206.572     -88.895    -362.627
  N     -206.959     -88.594    -363.911
  N     -208.852     -88.896    -361.459
  C     -209.125     -89.118    -360.184
  N     -207.994     -89.351    -359.451
  O     -214.243     -89.624    -356.572
  O     -213.039     -87.323    -356.282
  H     -205.791     -87.884    -358.296
  H     -212.278     -86.809    -356.617
  H     -203.792     -89.483    -360.967
  H     -210.119     -89.107    -359.744
  H     -207.124     -90.304    -357.840
  H     -208.004     -87.348    -357.810
  H     -208.249     -87.450    -355.447
  H     -209.273     -90.091    -355.395
  H     -210.607     -87.932    -355.160
  H     -206.247     -88.532    -364.619
  H     -207.942     -88.478    -364.118
  H     -210.624     -87.819    -356.933
  P     -206.389     -88.369    -353.890
  C     -203.995     -88.225    -354.856
  O     -204.822     -88.751    -353.820
  O     -207.135     -88.501    -352.604
  O     -206.341     -86.837    -354.371
  H     -206.535     -86.262    -353.604
  H     -202.985     -88.544    -354.703
  H     -204.038     -87.156    -354.838
  H     -204.342     -88.580    -355.804

 6  7  8  9  10  11  12  13  14  15  25  28  32  33  34  35 0
 6-311+G(2d,p)
 ****
 36  39  40 0
 6-311+G(2d,p)
 ****
 1  2  3  4  5  16  17  18  19  20  21  22  23  24 0
 3-21G
 ****
 26  27  29  30  31  37  38  41  42  43  44  45  46  47 0
 3-21G
 ****
 48 0
 3-21G
 ****


