%nproc=1
%NoSave
%Mem=1900MB
#P OB98/GEN NMR

erre ene a

0 1
  C     -623.375     263.383    -460.237
  O     -622.378     264.227    -460.782
  H     -624.073     263.106    -461.030
  H     -623.927     263.898    -459.449
  H     -622.920     262.470    -459.839
  P     -621.267     264.834    -459.799
  C     -622.484     267.057    -459.256
  O     -621.395     266.429    -459.920
  C     -622.572     268.536    -459.646
  O     -621.530     269.281    -458.987
  C     -622.408     268.803    -461.135
  O     -623.579     268.447    -461.840
  C     -622.077     270.286    -461.115
  O     -623.260     271.076    -460.938
  C     -621.168     270.375    -459.867
  N     -619.737     270.340    -460.179
  C     -619.240     271.392    -460.952
  O     -620.003     272.287    -461.340
  N     -617.908     271.402    -461.276
  C     -617.121     270.465    -460.834
  N     -615.811     270.538    -461.185
  C     -617.595     269.355    -459.986
  C     -618.898     269.342    -459.709
  O     -619.875     264.303    -459.966
  O     -621.848     264.534    -458.338
  H     -622.955     272.002    -460.881
  H     -621.483     263.699    -457.990
  H     -616.908     268.596    -459.637
  H     -619.329     268.555    -459.097
  H     -621.363     271.307    -459.316
  H     -621.603     270.616    -462.047
  H     -621.534     268.257    -461.522
  H     -623.532     268.920    -459.281
  H     -615.532     271.328    -461.753
  H     -622.319     266.961    -458.184
  H     -615.093     269.962    -460.775
  H     -623.429     266.552    -459.505
  P     -623.702     267.055    -462.636
  C     -623.554     267.968    -465.030
  O     -624.405     267.412    -464.028
  O     -624.355     265.951    -461.862
  O     -622.204     266.727    -463.060
  H     -621.689     266.382    -462.289
  H     -624.125     268.167    -465.913
  H     -622.773     267.274    -465.259
  H     -623.126     268.880    -464.669

 6  7  8  9  10  11  12  13  14  15  16  26  30  31  32  33  35 0
 6-311+G(2d,p)
 ****
 37  38 0
 6-311+G(2d,p)
 ****
 1  2  3  4  5  17  18  19  20  21  22  23  24  25 0
 3-21G
 ****
 27  28  29  34  36  39  40  41  42  43  44  45  46 0
 3-21G
 ****


