%nproc=1
%NoSave
%Mem=1900MB
#P OB98/GEN NMR

erre ene a

0 1
  C      290.141    -371.390     118.721
  O      290.417    -371.920     117.446
  P      291.114    -373.330     117.201
  C      289.158    -375.065     117.103
  O      290.203    -374.472     117.866
  C      289.081    -376.575     117.357
  O      290.299    -377.188     116.866
  C      288.994    -376.893     118.862
  O      288.075    -377.929     119.183
  C      290.453    -377.106     119.244
  O      290.620    -377.840     120.447
  C      291.015    -377.755     117.984
  N      295.707    -378.509     119.785
  C      294.518    -379.088     120.185
  N      294.567    -379.807     121.331
  N      293.386    -378.931     119.547
  C      293.473    -378.090     118.491
  C      294.594    -377.463     117.996
  C      295.842    -377.673     118.690
  O      296.895    -377.098     118.435
  N      294.292    -376.635     116.950
  C      292.982    -376.723     116.831
  N      292.437    -377.575     117.771
  O      292.592    -373.395     117.420
  O      290.841    -373.556     115.623
  H      291.580    -377.954     120.593
  H      291.615    -374.038     115.269
  H      296.533    -378.605     120.365
  H      292.381    -376.181     116.116
  H      290.845    -378.834     117.977
  H      290.899    -376.118     119.409
  H      295.384    -379.825     121.917
  H      288.606    -376.029     119.411
  H      293.675    -380.023     121.775
  H      288.243    -376.995     116.792
  H      289.400    -374.867     116.052
  H      288.202    -374.582     117.323
  P      286.939    -377.944     120.303
  C      284.612    -377.393     119.366
  O      285.814    -376.874     119.900
  O      287.614    -377.282     121.590
  O      286.411    -379.301     120.636
  H      287.325    -377.756     122.395
  H      284.064    -376.578     118.890
  H      284.007    -377.813     120.167
  H      284.827    -378.169     118.618
  H      289.672    -370.434     118.616
  H      291.055    -371.281     119.267
  H      289.487    -372.052     119.249

 3  4  5  6  7  8  9  10  11  12  23  26  30  31 0
 6-311+G(2d,p)
 ****
 33  35  36  37  38 0
 6-311+G(2d,p)
 ****
 1  2  13  14  15  16  17  18  19  20  21  22  24  25 0
 3-21G
 ****
 27  28  29  32  34  39  40  41  42  43  44  45  46  47  48  49 0
 3-21G
 ****


