%nproc=1
%NoSave
%Mem=1900MB
#P OB98/GEN NMR

erre ene a

0 1
  C     -428.972     664.890     383.931
  O     -429.401     663.736     384.622
  H     -429.711     665.134     383.165
  H     -428.014     664.688     383.442
  H     -428.868     665.742     384.604
  P     -428.682     663.343     385.994
  C     -430.029     665.115     387.301
  O     -429.678     663.743     387.182
  C     -429.953     665.574     388.765
  O     -430.056     667.022     388.813
  C     -431.117     665.014     389.590
  O     -430.779     664.863     390.964
  C     -432.176     666.102     389.460
  O     -433.134     666.082     390.517
  C     -431.306     667.366     389.431
  N     -435.084     670.779     389.320
  C     -434.928     669.682     390.144
  N     -435.908     669.470     391.059
  N     -433.921     668.851     390.064
  C     -433.061     669.158     389.055
  C     -433.119     670.199     388.162
  C     -434.228     671.131     388.291
  O     -434.424     672.105     387.574
  N     -432.071     670.171     387.281
  C     -431.376     669.104     387.630
  N     -431.922     668.468     388.721
  O     -427.516     664.437     386.136
  O     -428.131     661.951     386.062
  H     -433.786     666.785     390.328
  H     -426.811     664.112     386.723
  H     -435.867     671.401     389.442
  H     -430.472     668.761     387.147
  H     -431.091     667.706     390.451
  H     -432.720     665.947     388.520
  H     -436.785     669.960     391.016
  H     -431.485     664.068     389.208
  H     -435.971     668.523     391.442
  H     -428.975     665.312     389.192
  H     -431.048     665.218     386.920
  H     -429.382     665.729     386.670
  P     -430.840     663.399     391.613
  C     -428.231     662.972     391.816
  O     -429.492     663.113     392.432
  O     -430.731     662.422     390.354
  O     -432.060     663.129     392.429
  H     -431.551     661.907     390.255
  H     -427.488     662.787     392.563
  H     -427.990     663.871     391.287
  H     -428.259     662.151     391.130

 6  7  8  9  10  11  12  13  14  15  26  29  33  34 0
 6-311+G(2d,p)
 ****
 36  38  39  40  41 0
 6-311+G(2d,p)
 ****
 1  2  3  4  5  16  17  18  19  20  21  22  23  24  25 0
 3-21G
 ****
 27  28  30  31  32  35  37  42  43  44  45  46  47 0
 3-21G
 ****
 48  49 0
 3-21G
 ****


