%nproc=1
%NoSave
%Mem=1900MB
#P OB98/GEN NMR

erre ene a

0 1
  C      415.125     103.167    -482.557
  O      414.111     102.220    -482.241
  P      413.288     102.440    -480.878
  C      413.568      99.881    -480.548
  O      412.691     101.001    -480.497
  C      412.858      98.625    -480.050
  O      412.335      98.839    -478.721
  C      411.666      98.195    -480.894
  O      412.057      97.456    -482.041
  C      410.928      97.299    -479.912
  O      411.558      96.004    -479.863
  C      411.132      98.038    -478.587
  N      407.181      98.676    -475.405
  C      408.069      97.669    -475.547
  N      409.084      97.566    -476.426
  C      409.116      98.635    -477.238
  C      408.256      99.722    -477.237
  C      407.251      99.729    -476.258
  N      406.367     100.769    -476.093
  N      408.604     100.618    -478.222
  C      409.658     100.095    -478.806
  N      410.016      98.900    -478.241
  O      412.000     103.257    -481.366
  O      414.029     103.154    -479.800
  H      411.343      95.554    -480.704
  H      411.618     103.757    -480.621
  H      407.950      96.836    -474.858
  H      410.203     100.542    -479.630
  H      411.293      97.354    -477.746
  H      409.880      97.135    -480.191
  H      411.036      99.054    -481.155
  H      413.600      97.817    -479.994
  H      414.437     100.077    -479.908
  H      405.801     100.783    -475.258
  H      406.550     101.634    -476.595
  H      413.911      99.743    -481.577
  P      411.659      98.076    -483.467
  C      411.134      95.807    -484.623
  O      411.994      96.927    -484.532
  O      412.794      99.173    -483.717
  O      410.286      98.651    -483.523
  H      412.467      99.872    -484.317
  H      411.314      95.296    -485.575
  H      410.082      96.112    -484.586
  H      411.343      95.109    -483.804
  H      415.587     102.899    -483.484
  H      415.861     103.174    -481.780
  H      414.689     104.140    -482.644

 3  4  5  6  7  8  9  10  11  12  22  25  29  30  31  32 0
 6-311+G(2d,p)
 ****
 33  36  37 0
 6-311+G(2d,p)
 ****
 1  2  13  14  15  16  17  18  19  20  21  23  24  26 0
 3-21G
 ****
 27  28  34  35  38  39  40  41  42  43  44  45  46  47  48 0
 3-21G
 ****


