%nproc=1
%NoSave
%Mem=1900MB
#P OB98/GEN NMR

erre ene a

0 1
  C       38.070     -84.922     -30.668
  O       36.956     -84.390     -29.940
  P       37.230     -83.182     -28.923
  C       37.227     -81.163     -30.562
  O       37.989     -82.021     -29.725
  C       36.990     -79.818     -29.867
  O       38.210     -79.285     -29.305
  C       36.453     -78.738     -30.798
  O       35.045     -78.837     -30.962
  C       36.793     -77.481     -30.012
  O       35.812     -77.270     -28.976
  C       38.153     -77.839     -29.398
  N       41.317     -73.963     -30.140
  C       40.292     -74.112     -29.227
  N       40.082     -73.078     -28.384
  N       39.537     -75.178     -29.150
  C       39.872     -76.135     -30.045
  C       40.865     -76.104     -31.000
  C       41.680     -74.915     -31.084
  O       42.595     -74.719     -31.881
  N       40.894     -77.264     -31.727
  C       39.936     -78.006     -31.204
  N       39.275     -77.357     -30.190
  O       38.384     -83.769     -27.976
  O       36.036     -82.758     -28.137
  H       35.730     -78.115     -28.493
  H       38.337     -83.350     -27.099
  H       41.862     -73.119     -30.159
  H       39.684     -79.010     -31.522
  H       38.276     -77.437     -28.387
  H       36.789     -76.583     -30.639
  H       40.656     -72.252     -28.354
  H       36.985     -78.738     -31.756
  H       39.357     -73.182     -27.684
  H       36.272     -79.979     -29.050
  H       36.268     -81.626     -30.809
  H       37.752     -81.036     -31.513
  P       34.405     -78.243     -32.309
  C       35.538     -79.977     -33.878
  O       35.423     -78.623     -33.486
  O       34.595     -76.664     -32.124
  O       32.979     -78.606     -32.534
  H       33.869     -76.187     -32.569
  H       36.140     -80.029     -34.786
  H       34.553     -80.406     -34.081
  H       36.035     -80.552     -33.092
  H       37.735     -85.716     -31.302
  H       38.799     -85.297     -29.980
  H       38.507     -84.149     -31.265

 3  4  5  6  7  8  9  10  11  12  23  26  30  31 0
 6-311+G(2d,p)
 ****
 33  35  36  37  38 0
 6-311+G(2d,p)
 ****
 1  2  13  14  15  16  17  18  19  20  21  22  24  25 0
 3-21G
 ****
 27  28  29  32  34  39  40  41  42  43  44  45  46  47  48  49 0
 3-21G
 ****


