%nproc=1
%NoSave
%Mem=1900MB
#P OB98/GEN NMR

erre ene a

0 1
  C       69.563       1.016     197.781
  O       70.024       0.572     199.041
  H       68.556       1.428     197.896
  H       69.521       0.178     197.079
  H       70.220       1.798     197.387
  P       71.534       0.036     199.118
  C       72.656      -2.312     198.971
  O       71.462      -1.550     198.868
  C       72.324      -3.807     198.948
  O       71.682      -4.159     200.205
  C       71.359      -4.196     197.817
  O       71.722      -5.489     197.321
  C       70.013      -4.272     198.520
  O       69.066      -5.098     197.853
  C       70.430      -4.807     199.891
  N       69.433      -4.537     200.930
  C       68.515      -5.543     201.213
  O       68.526      -6.666     200.711
  N       67.539      -5.215     202.123
  C       67.387      -4.006     202.740
  O       66.479      -3.769     203.528
  C       68.383      -2.979     202.394
  C       69.343      -3.288     201.516
  O       71.886       0.143     200.675
  O       72.520       0.750     198.254
  H       72.278       1.015     200.879
  H       68.783      -4.634     197.039
  H       66.866      -5.933     202.343
  H       68.288      -2.009     202.856
  H       70.084      -2.550     201.227
  H       70.626      -5.886     199.838
  H       69.578      -3.267     198.610
  H       71.350      -3.473     196.999
  H       73.257      -4.380     198.887
  H       73.156      -2.070     199.914
  H       73.320      -2.057     198.136
  P       72.316      -5.566     195.828
  C       71.196      -5.668     193.465
  O       71.057      -5.844     194.867
  O       73.102      -6.957     195.869
  O       73.150      -4.378     195.472
  H       72.652      -7.640     196.400
  H       70.268      -5.895     192.983
  H       71.958      -6.323     193.097
  H       71.467      -4.654     193.258

 6  7  8  9  10  11  12  13  14  15  16  27  31  32  33  34  35 0
 6-311+G(2d,p)
 ****
 36  37 0
 6-311+G(2d,p)
 ****
 1  2  3  4  5  17  18  19  20  21  22  23  24  25 0
 3-21G
 ****
 26  28  29  30  38  39  40  41  42  43  44  45 0
 3-21G
 ****


