%nproc=1
%NoSave
%Mem=1900MB
#P OB98/GEN NMR

erre ene a

0 1
  C      -44.562      -5.270     -30.651
  O      -44.240      -4.128     -31.445
  P      -43.728      -4.353     -32.947
  C      -41.749      -2.723     -32.714
  O      -42.948      -3.032     -33.414
  C      -41.751      -1.266     -32.250
  O      -42.562      -1.083     -31.073
  C      -40.372      -0.753     -31.874
  O      -39.588      -0.510     -33.028
  C      -40.725       0.481     -31.057
  O      -40.996       1.604     -31.912
  C      -42.019       0.037     -30.341
  N      -41.817      -0.290     -28.938
  C      -42.248       0.669     -28.016
  O      -42.729       1.734     -28.405
  N      -42.108       0.403     -26.676
  C      -41.578      -0.718     -26.294
  N      -41.467      -0.930     -24.956
  C      -41.099      -1.749     -27.235
  C      -41.241      -1.469     -28.528
  O      -44.750      -4.863     -33.908
  O      -42.535      -5.411     -32.760
  H      -41.735       1.330     -32.490
  H      -42.473      -5.961     -33.564
  H      -40.670      -2.669     -26.866
  H      -40.913      -2.170     -29.287
  H      -42.773       0.834     -30.392
  H      -39.909       0.774     -30.389
  H      -39.867      -1.487     -31.232
  H      -42.169      -0.651     -33.060
  H      -41.792      -0.202     -24.332
  H      -40.890      -2.904     -33.365
  H      -41.115      -1.789     -24.560
  H      -41.650      -3.407     -31.864
  P      -38.203      -1.304     -33.168
  C      -36.472       0.622     -33.106
  O      -37.154      -0.335     -33.890
  O      -38.530      -2.399     -34.293
  O      -37.722      -1.951     -31.910
  H      -38.033      -3.216     -34.107
  H      -35.595       0.968     -33.662
  H      -36.138       0.197     -32.156
  H      -37.126       1.476     -32.916
  H      -44.885      -4.951     -29.682
  H      -43.696      -5.891     -30.552
  H      -45.346      -5.824     -31.124

 3  4  5  6  7  8  9  10  11  12  13  23  27  28  29  30  32 0
 6-311+G(2d,p)
 ****
 34  35 0
 6-311+G(2d,p)
 ****
 1  2  14  15  16  17  18  19  20  21  22  24  25  26 0
 3-21G
 ****
 31  33  36  37  38  39  40  41  42  43  44  45  46 0
 3-21G
 ****


