%nproc=1
%NoSave
%Mem=1900MB
#P OB98/GEN NMR

erre ene a

0 1
  C     -121.723     -23.951      32.455
  O     -122.582     -25.073      32.434
  P     -123.580     -25.359      33.656
  C     -123.281     -25.742      36.189
  O     -122.634     -25.641      34.924
  C     -122.623     -26.820      37.052
  O     -122.832     -28.125      36.478
  C     -121.115     -26.665      37.196
  O     -120.805     -25.642      38.124
  C     -120.718     -28.067      37.639
  O     -120.911     -28.240      39.053
  C     -121.703     -28.950      36.842
  N     -121.081     -29.563      35.676
  C     -120.380     -30.752      35.910
  O     -120.286     -31.204      37.052
  N     -119.760     -31.372      34.852
  C     -119.818     -30.837      33.671
  N     -119.174     -31.493      32.665
  C     -120.520     -29.569      33.388
  C     -121.121     -28.992      34.426
  O     -124.627     -26.390      33.396
  O     -124.182     -23.909      33.977
  H     -121.861     -28.076      39.219
  H     -124.841     -23.632      33.294
  H     -120.530     -29.157      32.390
  H     -121.656     -28.057      34.309
  H     -122.100     -29.752      37.478
  H     -119.665     -28.280      37.431
  H     -120.670     -26.450      36.217
  H     -123.101     -26.802      38.041
  H     -118.680     -32.343      32.908
  H     -124.329     -26.006      36.019
  H     -119.124     -31.147      31.721
  H     -123.249     -24.770      36.691
  P     -119.729     -24.520      37.744
  C     -117.239     -24.459      37.129
  O     -118.288     -25.219      37.697
  O     -119.802     -23.263      38.546
  O     -120.033     -24.221      36.198
  H     -120.020     -23.256      36.053
  H     -116.284     -24.884      37.450
  H     -117.290     -23.415      37.450
  H     -117.300     -24.510      36.039
  H     -121.139     -23.932      31.559
  H     -121.073     -24.015      33.303
  H     -122.306     -23.056      32.520

 3  4  5  6  7  8  9  10  11  12  13  23  27  28  29  30  32 0
 6-311+G(2d,p)
 ****
 34  35 0
 6-311+G(2d,p)
 ****
 1  2  14  15  16  17  18  19  20  21  22  24  25  26 0
 3-21G
 ****
 31  33  36  37  38  39  40  41  42  43  44  45  46 0
 3-21G
 ****


