%nproc=1
%NoSave
%Mem=1900MB
#P OB98/GEN NMR

erre ene a

0 1
  C     -139.571    -298.542     354.081
  O     -139.227    -299.919     354.015
  P     -140.335    -300.931     353.440
  C     -138.446    -302.518     352.626
  O     -139.623    -302.369     353.413
  C     -138.247    -303.973     352.227
  O     -138.082    -304.784     353.410
  C     -139.414    -304.591     351.473
  O     -139.396    -304.247     350.093
  C     -139.142    -306.075     351.669
  O     -138.158    -306.520     350.712
  C     -138.563    -306.117     353.097
  N     -141.843    -309.695     354.548
  C     -141.006    -309.652     353.449
  N     -141.032    -310.729     352.635
  N     -140.223    -308.641     353.170
  C     -140.271    -307.654     354.093
  C     -141.059    -307.580     355.225
  C     -141.954    -308.681     355.493
  O     -142.767    -308.745     356.419
  N     -140.812    -306.429     355.926
  C     -139.862    -305.821     355.243
  N     -139.522    -306.513     354.108
  O     -140.424    -300.533     351.891
  O     -141.662    -300.862     354.109
  H     -137.989    -307.465     350.898
  H     -141.300    -300.780     351.536
  H     -142.412    -310.504     354.726
  H     -139.396    -304.889     355.530
  H     -137.696    -306.790     353.151
  H     -140.034    -306.696     351.526
  H     -141.513    -311.585     352.864
  H     -140.368    -304.327     351.937
  H     -140.396    -310.732     351.841
  H     -137.322    -304.044     351.636
  H     -137.582    -302.185     353.211
  H     -138.533    -301.883     351.738
  P     -140.330    -303.017     349.644
  C     -138.594    -302.404     347.805
  O     -139.938    -302.732     348.118
  O     -139.708    -301.778     350.437
  O     -141.779    -303.207     349.935
  H     -140.392    -301.094     350.582
  H     -137.897    -302.967     348.432
  H     -138.437    -301.335     347.945
  H     -138.405    -302.661     346.762
  H     -138.747    -297.987     354.480
  H     -140.425    -298.418     354.714
  H     -139.800    -298.184     353.099

 3  4  5  6  7  8  9  10  11  12  23  26  30  31  33  0
 6-311+G(2d,p)
 ****
 35  36  37  38 0
 6-311+G(2d,p)
 ****
 1  2  13  14  15  16  17  18  19  20  21  22  24  25  27  28  29 0
 3-21G
 ****
 32  34  39  40  41  42  43  44  45  46  47  48  49 0
 3-21G
 ****


