%nproc=1
%NoSave
%Mem=1900MB
#P OB98/GEN NMR

erre ene a

0 1
  C      -65.364     178.919     476.426
  O      -64.449     179.220     475.384
  P      -64.914     179.214     473.840
  C      -64.770     176.640     473.590
  O      -65.619     177.788     473.632
  C      -65.261     175.673     472.512
  O      -66.575     175.197     472.841
  C      -65.378     176.293     471.123
  O      -64.101     176.442     470.517
  C      -66.322     175.294     470.449
  O      -65.594     174.137     470.025
  C      -67.266     174.932     471.604
  N      -68.546     175.650     471.546
  C      -69.576     175.047     470.823
  O      -69.403     173.950     470.264
  N      -70.799     175.664     470.754
  C      -70.970     176.817     471.348
  N      -72.217     177.356     471.307
  C      -69.893     177.521     472.077
  C      -68.722     176.878     472.144
  O      -63.836     179.533     472.864
  O      -66.150     180.225     473.791
  H      -65.132     174.387     469.195
  H      -65.891     181.166     473.632
  H      -70.087     178.482     472.535
  H      -67.889     177.321     472.671
  H      -67.477     173.849     471.601
  H      -66.838     175.707     469.574
  H      -65.862     177.280     471.185
  H      -64.573     174.818     472.493
  H      -72.960     176.764     470.948
  H      -64.821     176.141     474.566
  H      -72.509     178.067     471.966
  H      -63.741     176.959     473.405
  P      -63.851     177.764     469.644
  C      -63.410     177.027     467.190
  O      -64.374     177.418     468.155
  O      -62.260     177.808     469.498
  O      -64.404     179.014     470.233
  H      -61.865     178.457     470.123
  H      -63.944     176.596     466.326
  H      -62.731     176.268     467.600
  H      -62.839     177.906     466.850
  H      -64.862     178.977     477.369
  H      -65.750     177.931     476.287
  H      -66.170     179.623     476.407

 3  4  5  6  7  8  9  10  11  12  13  23  27  28  29  30  32 0
 6-311+G(2d,p)
 ****
 34  35 0
 6-311+G(2d,p)
 ****
 1  2  14  15  16  17  18  19  20  21  22  24  25  26 0
 3-21G
 ****
 31  33  36  37  38  39  40  41  42  43  44  45  46 0
 3-21G
 ****


