%nproc=1
%NoSave
%Mem=1900MB
#P OB98/GEN NMR

erre ene a

0 1
  C       21.110     -26.786     115.509
  O       20.439     -25.601     115.891
  H       21.800     -27.068     116.308
  H       21.684     -26.624     114.592
  H       20.393     -27.599     115.362
  P       19.394     -24.951     114.865
  C       17.095     -25.689     113.945
  O       18.328     -26.101     114.526
  C       16.494     -26.824     113.120
  O       17.338     -27.125     111.992
  C       16.317     -28.133     113.886
  O       15.131     -28.101     114.663
  C       16.232     -29.119     112.733
  O       14.925     -29.048     112.130
  C       17.289     -28.561     111.762
  N       21.867     -29.079     109.633
  C       20.700     -28.562     109.106
  N       20.750     -28.153     107.821
  N       19.579     -28.466     109.776
  C       19.657     -28.978     111.025
  C       20.751     -29.532     111.652
  C       22.002     -29.571     110.923
  O       23.067     -29.999     111.362
  N       20.424     -30.029     112.888
  C       19.147     -29.728     113.031
  N       18.631     -29.096     111.921
  O       19.983     -24.293     113.655
  O       18.552     -23.924     115.758
  H       14.855     -28.178     111.697
  H       18.944     -23.032     115.732
  H       22.698     -29.135     109.067
  H       18.551     -29.938     113.909
  H       17.008     -28.717     110.714
  H       16.386     -30.154     113.047
  H       21.534     -28.338     107.212
  H       17.199     -28.367     114.490
  H       19.888     -27.825     107.400
  H       15.535     -26.472     112.717
  H       17.304     -24.823     113.311
  H       16.387     -25.390     114.726
  P       14.956     -29.025     115.967
  C       16.133     -29.098     118.269
  O       16.174     -28.628     116.933
  O       14.831     -30.483     115.689
  O       13.705     -28.394     116.732
  H       12.837     -28.736     116.401
  H       17.002     -28.759     118.793
  H       16.110     -30.168     118.270
  H       15.256     -28.722     118.753

 6  7  8  9  10  11  12  13  14  15  26  29  33  34 0
 6-311+G(2d,p)
 ****
 36  38  39  40  41 0
 6-311+G(2d,p)
 ****
 1  2  3  4  5  16  17  18  19  20  21  22  23  24  25 0
 3-21G
 ****
 27  28  30  31  32  35  37  42  43  44  45  46  47 0
 3-21G
 ****
 48  49 0
 3-21G
 ****


