%nproc=1
%NoSave
%Mem=1900MB
#P OB98/GEN NMR

erre ene a

0 1
  C      169.341    -142.416    -246.073
  O      169.883    -143.521    -245.338
  P      169.109    -144.241    -244.129
  C      169.078    -143.973    -241.565
  O      169.189    -143.316    -242.819
  C      168.716    -142.995    -240.440
  O      169.811    -142.053    -240.224
  C      167.445    -142.166    -240.701
  O      166.766    -142.053    -239.445
  C      168.026    -140.832    -241.143
  O      167.109    -139.755    -241.053
  C      169.221    -140.737    -240.188
  N      170.209    -139.718    -240.521
  C      169.804    -138.378    -240.471
  O      168.642    -138.066    -240.214
  N      170.735    -137.402    -240.737
  C      171.953    -137.726    -241.033
  N      172.824    -136.711    -241.275
  C      172.416    -139.121    -241.117
  C      171.504    -140.052    -240.848
  O      169.553    -145.647    -243.887
  O      167.560    -144.203    -244.532
  H      167.128    -145.020    -244.220
  H      166.459    -139.854    -241.772
  H      173.444    -139.349    -241.360
  H      171.774    -141.104    -240.861
  H      168.857    -140.576    -239.167
  H      168.341    -140.915    -242.187
  H      166.768    -142.620    -241.429
  H      168.610    -143.571    -239.512
  H      172.471    -135.763    -241.199
  H      170.038    -144.440    -241.332
  H      173.798    -136.848    -241.508
  H      168.321    -144.762    -241.642
  P      165.343    -142.766    -239.247
  C      162.859    -141.980    -239.226
  O      164.207    -141.664    -239.506
  O      165.279    -142.934    -237.653
  O      165.169    -144.093    -239.912
  H      164.691    -143.681    -237.434
  H      162.404    -141.135    -238.701
  H      162.763    -142.871    -238.603
  H      162.327    -142.139    -240.167
  H      170.039    -142.111    -246.825
  H      169.156    -141.600    -245.406
  H      168.423    -142.712    -246.537

 3  4  5  6  7  8  9  10  11  12  13  24  27  28  29  30  32 0
 6-311+G(2d,p)
 ****
 34  35 0
 6-311+G(2d,p)
 ****
 1  2  14  15  16  17  18  19  20  21  22  23  25  26 0
 3-21G
 ****
 31  33  36  37  38  39  40  41  42  43  44  45  46 0
 3-21G
 ****


