%nproc=1
%NoSave
%Mem=1900MB
#P OB98/GEN NMR

erre ene a

0 1
  C     -193.509     111.034      94.039
  O     -193.905     110.579      95.317
  H     -192.769     110.340      93.633
  H     -193.056     112.027      94.114
  H     -194.370     111.066      93.367
  P     -194.951     111.492      96.120
  C     -192.964     112.184      97.645
  O     -194.316     111.750      97.570
  C     -192.269     111.491      98.813
  O     -190.866     111.843      98.827
  C     -192.803     111.893     100.181
  O     -194.021     111.241     100.495
  C     -191.652     111.461     101.076
  O     -191.735     110.065     101.403
  C     -190.417     111.754     100.195
  N     -189.711     112.958     100.620
  C     -188.916     112.824     101.754
  O     -188.801     111.767     102.376
  N     -188.281     113.960     102.177
  C     -188.393     115.196     101.612
  O     -187.856     116.191     102.085
  C     -189.236     115.277     100.407
  C     -189.856     114.173      99.978
  O     -196.163     110.487      96.408
  O     -195.396     112.724      95.403
  H     -196.898     110.667      95.792
  H     -190.951     109.866     101.952
  H     -187.709     113.885     103.004
  H     -189.341     116.243      99.930
  H     -190.497     114.211      99.104
  H     -189.710     110.915     100.240
  H     -191.653     112.008     102.020
  H     -192.908     112.984     100.243
  H     -192.350     110.404      98.670
  H     -192.936     113.267      97.804
  H     -192.462     111.954      96.699
  P     -195.118     112.039     101.350
  C     -194.107     111.302     103.661
  O     -195.211     111.307     102.774
  O     -196.464     111.609     100.601
  O     -194.875     113.508     101.417
  H     -196.443     110.691     100.280
  H     -194.366     110.767     104.550
  H     -193.848     112.309     103.914
  H     -193.273     110.827     103.189

 6  7  8  9  10  11  12  13  14  15  16  27  31  32  33  34  35 0
 6-311+G(2d,p)
 ****
 36  37 0
 6-311+G(2d,p)
 ****
 1  2  3  4  5  17  18  19  20  21  22  23  24  25 0
 3-21G
 ****
 26  28  29  30  38  39  40  41  42  43  44  45 0
 3-21G
 ****


