%nproc=1
%NoSave
%Mem=1900MB
#P OB98/GEN NMR

erre ene a

0 1
  C     -239.539     -10.292     -66.988
  O     -238.294      -9.954     -66.375
  P     -237.019     -10.835     -66.795
  C     -235.072      -9.124     -66.782
  O     -235.711     -10.201     -66.112
  C     -235.773      -7.786     -66.511
  O     -236.173      -7.682     -65.119
  C     -234.904      -6.567     -66.826
  O     -235.770      -5.533     -67.300
  C     -234.370      -6.167     -65.464
  O     -233.939      -4.808     -65.456
  C     -235.589      -6.477     -64.579
  N     -235.252      -6.626     -63.166
  C     -236.002      -5.884     -62.251
  O     -236.859      -5.092     -62.651
  N     -235.742      -6.022     -60.912
  C     -234.777      -6.795     -60.522
  N     -234.565      -6.887     -59.181
  C     -233.918      -7.550     -61.453
  C     -234.213      -7.422     -62.746
  O     -236.836     -10.504     -68.350
  O     -237.205     -12.301     -66.567
  H     -233.424      -4.657     -64.634
  H     -236.751     -11.331     -68.859
  H     -233.111      -8.166     -61.083
  H     -233.644      -7.939     -63.505
  H     -236.338      -5.679     -64.662
  H     -233.523      -6.804     -65.186
  H     -234.124      -6.766     -67.567
  H     -236.686      -7.754     -67.117
  H     -235.180      -6.359     -58.572
  H     -235.063      -9.310     -67.858
  H     -233.841      -7.456     -58.766
  H     -234.023      -9.087     -66.472
  P     -236.276      -5.603     -68.819
  C     -238.739      -5.065     -68.330
  O     -237.524      -4.596     -68.881
  O     -237.018      -7.027     -68.845
  O     -235.268      -5.497     -69.912
  H     -237.316      -7.225     -69.750
  H     -239.460      -4.244     -68.326
  H     -238.586      -5.406     -67.301
  H     -239.138      -5.879     -68.942
  H     -240.304      -9.636     -66.627
  H     -239.793     -11.303     -66.746
  H     -239.453     -10.190     -68.050

 3  4  5  6  7  8  9  10  11  12  13  21  23  27  28  29  30  32 0
 6-311+G(2d,p)
 ****
 34  35 0
 6-311+G(2d,p)
 ****
 1  2  14  15  16  17  18  19  20  22  24  25  26 0
 3-21G
 ****
 31  33  36  37  38  39  40  41  42  43  44  45  46 0
 3-21G
 ****


