%nproc=1
%NoSave
%Mem=1900MB
#P OB98/GEN NMR

erre ene a

0 1
  C      325.919    -310.261     -90.039
  O      325.531    -309.452     -88.945
  H      325.675    -311.302     -89.814
  H      326.996    -310.178     -90.205
  H      325.380    -309.957     -90.941
  P      325.773    -307.873     -89.099
  C      323.644    -307.185     -87.766
  O      325.063    -307.193     -87.832
  C      323.183    -306.713     -86.377
  O      323.347    -307.815     -85.436
  C      323.995    -305.528     -85.824
  O      323.142    -304.746     -84.971
  C      325.040    -306.232     -84.977
  O      325.648    -305.329     -84.088
  C      324.172    -307.325     -84.356
  N      326.482    -308.941     -80.103
  C      325.708    -307.861     -80.354
  N      325.126    -307.505     -81.516
  C      325.377    -308.418     -82.475
  C      326.142    -309.565     -82.369
  C      326.722    -309.814     -81.113
  N      327.526    -310.902     -80.854
  N      326.190    -310.231     -83.581
  C      325.455    -309.502     -84.397
  N      324.945    -308.398     -83.774
  O      324.828    -307.478     -90.328
  O      327.189    -307.455     -89.325
  H      326.326    -305.774     -83.539
  H      325.332    -307.515     -91.163
  H      325.545    -307.189     -79.514
  H      325.273    -309.717     -85.445
  H      323.508    -306.931     -83.574
  H      325.830    -306.664     -85.601
  H      324.415    -304.889     -86.606
  H      322.109    -306.486     -86.411
  H      323.279    -308.201     -87.955
  H      323.247    -306.506     -88.526
  H      327.921    -310.993     -79.935
  H      327.739    -311.543     -81.602
  P      323.185    -303.141     -85.079
  C      320.608    -302.743     -84.955
  O      321.883    -302.496     -84.383
  O      322.887    -302.903     -86.639
  O      324.479    -302.506     -84.697
  H      323.517    -302.250     -86.993
  H      319.856    -302.247     -84.377
  H      320.417    -303.796     -84.960
  H      320.589    -302.372     -85.958

 6  7  8  9  10  11  12  13  14  15  25  28  32  33  34  35 0
 6-311+G(2d,p)
 ****
 36  37  40 0
 6-311+G(2d,p)
 ****
 1  2  3  4  5  16  17  18  19  20  21  22  23  24 0
 3-21G
 ****
 26  27  29  30  31  38  39 41  42  43  44  45  46  47  48 0
 3-21G
 ****


