%nproc=1
%NoSave
%Mem=1900MB
#P OB98/GEN NMR

erre ene a

0 1
  C       58.442     458.814    -188.535
  O       58.603     460.149    -188.968
  P       59.688     461.111    -188.292
  C       58.114     462.639    -186.966
  O       59.007     462.545    -188.066
  C       57.405     463.993    -186.937
  O       58.361     465.027    -186.585
  C       56.753     464.393    -188.268
  O       55.523     465.056    -187.957
  C       57.749     465.369    -188.860
  O       57.158     466.232    -189.820
  C       58.264     466.057    -187.590
  N       59.542     466.720    -187.796
  C       59.539     468.117    -187.793
  O       58.473     468.734    -187.753
  N       60.743     468.775    -187.850
  C       61.830     468.102    -188.082
  N       63.008     468.788    -188.061
  C       61.834     466.649    -188.341
  C       60.680     466.021    -188.142
  O       61.014     461.156    -188.981
  O       59.841     460.546    -186.797
  H       60.787     460.379    -186.617
  H       57.015     465.731    -190.653
  H       62.742     466.156    -188.654
  H       60.586     464.949    -188.277
  H       57.536     466.795    -187.230
  H       58.563     464.816    -189.351
  H       56.548     463.532    -188.914
  H       56.652     463.965    -186.142
  H       62.967     469.775    -187.844
  H       58.689     462.517    -186.045
  H       63.901     468.317    -187.915
  H       57.381     461.824    -187.010
  P       54.281     464.870    -188.960
  C       53.830     467.415    -189.212
  O       53.334     466.154    -188.813
  O       53.426     463.734    -188.210
  O       54.606     464.420    -190.351
  H       52.887     463.256    -188.867
  H       53.083     468.174    -188.979
  H       54.019     467.427    -190.293
  H       54.753     467.655    -188.674
  H       57.672     458.343    -189.110
  H       58.171     458.805    -187.500
  H       59.361     458.283    -188.667

 3  4  5  6  7  8  9  10  11  12  13  24  27  28  29  30  32 0
 6-311+G(2d,p)
 ****
 34  35 0
 6-311+G(2d,p)
 ****
 1  2  14  15  16  17  18  19  20  21  22  23  25  26 0
 3-21G
 ****
 31  33  36  37  38  39  40  41  42  43  44  45  46 0
 3-21G
 ****


