%nproc=1
%NoSave
%Mem=1900MB
#P OB98/GEN NMR

erre ene a

0 1
  C     -144.068     -85.741     -30.578
  O     -144.328     -85.574     -31.970
  P     -145.661     -86.218     -32.581
  C     -146.033     -84.427     -34.494
  O     -145.833     -85.767     -34.103
  C     -146.028     -84.340     -36.029
  O     -144.672     -84.301     -36.524
  C     -146.715     -85.526     -36.702
  O     -148.112     -85.329     -36.828
  C     -145.991     -85.594     -38.032
  O     -146.487     -84.581     -38.926
  C     -144.540     -85.272     -37.602
  N     -143.687     -86.386     -37.132
  C     -143.425     -87.461     -37.978
  O     -143.860     -87.564     -39.122
  N     -142.613     -88.442     -37.470
  C     -141.914     -88.385     -36.301
  O     -141.154     -89.268     -35.924
  C     -142.109     -87.163     -35.513
  C     -142.977     -86.246     -35.947
  O     -146.838     -85.452     -31.820
  O     -145.761     -87.703     -32.415
  H     -145.889     -84.555     -39.693
  H     -147.346     -86.072     -31.265
  H     -142.469     -89.261     -38.041
  H     -141.538     -87.053     -34.601
  H     -143.130     -85.337     -35.370
  H     -143.995     -84.782     -38.418
  H     -146.164     -86.546     -38.527
  H     -146.500     -86.448     -36.155
  H     -146.523     -83.407     -36.325
  H     -145.256     -83.780     -34.082
  H     -146.989     -84.067     -34.098
  P     -149.023     -85.215     -35.517
  C     -150.799     -84.826     -37.326
  O     -150.539     -85.335     -36.033
  O     -148.736     -84.061     -34.617
  O     -148.796     -86.622     -34.781
  H     -148.103     -86.545     -34.087
  H     -151.815     -85.108     -37.617
  H     -150.094     -85.241     -38.050
  H     -150.724     -83.735     -37.318
  H     -143.147     -85.257     -30.327
  H     -143.996     -86.784     -30.351
  H     -144.865     -85.307     -30.012

 3  4  5  6  7  8  9  10  11  12  13  23  28  29  30  31  32 0
 6-311+G(2d,p)
 ****
 33  34 0
 6-311+G(2d,p)
 ****
 1  2  14  15  16  17  18  19  20  21  22  24  25  26  27 0
 3-21G
 ****
 35  36  37  38  39  40  41  42  43  44  45 0
 3-21G
 ****


