%nproc=1
%NoSave
%Mem=1900MB
#P OB98/GEN NMR

erre ene a

0 1
  C      683.585     480.340     114.598
  O      684.297     481.092     113.620
  P      685.895     481.190     113.768
  C      685.882     483.152     112.004
  O      686.285     482.673     113.269
  C      686.168     484.651     111.879
  O      685.173     485.396     112.612
  C      687.512     485.080     112.466
  O      688.589     484.755     111.600
  C      687.293     486.581     112.665
  O      687.447     487.283     111.415
  C      685.800     486.606     113.104
  N      685.619     486.769     114.546
  C      685.107     487.984     114.973
  O      684.802     488.897     114.201
  N      684.971     488.119     116.321
  C      685.349     487.220     117.276
  O      685.246     487.416     118.484
  C      685.911     485.961     116.766
  C      686.019     485.800     115.442
  O      686.360     480.228     112.580
  O      686.386     480.807     115.126
  H      685.700     480.186     111.866
  H      687.256     488.224     111.598
  H      684.574     488.989     116.661
  H      686.234     485.221     117.487
  H      686.450     484.887     115.037
  H      685.281     487.444     112.594
  H      687.975     487.021     113.384
  H      687.671     484.597     113.440
  H      686.101     484.923     110.822
  H      684.799     482.976     111.886
  H      686.403     482.593     111.225
  P      690.045     484.631     112.280
  C      691.070     485.497     110.026
  O      691.008     485.600     111.438
  O      690.484     483.145     111.843
  O      690.032     484.871     113.762
  H      690.253     482.966     110.921
  H      691.478     486.423     109.613
  H      690.070     485.326     109.602
  H      691.724     484.669     109.748
  H      682.539     480.363     114.373
  H      683.751     480.765     115.566
  H      683.930     479.327     114.590

 3  4  5  6  7  8  9  10  11  12  13  24  28  29  30  31  32 0
 6-311+G(2d,p)
 ****
 33  34 0
 6-311+G(2d,p)
 ****
 1  2  14  15  16  17  18  19  20  21  22  23  25  26  27 0
 3-21G
 ****
 35  36  37  38  39  40  41  42  43  44  45 0
 3-21G
 ****


