%nproc=1
%NoSave
%Mem=1900MB
#P OB98/GEN NMR

erre ene a

0 1
  C     -303.425     307.862     -29.727
  O     -302.555     307.853     -28.589
  P     -301.360     308.923     -28.568
  C     -299.905     307.375     -30.103
  O     -300.027     308.090     -28.881
  C     -298.430     307.229     -30.482
  O     -297.815     308.532     -30.637
  C     -297.592     306.507     -29.439
  O     -297.840     305.111     -29.451
  C     -296.184     306.913     -29.871
  O     -295.746     306.099     -30.967
  C     -296.405     308.364     -30.343
  N     -295.946     309.357     -29.381
  C     -295.673     310.621     -29.900
  O     -295.783     310.896     -31.092
  N     -295.244     311.558     -28.997
  C     -295.040     311.351     -27.664
  O     -294.668     312.233     -26.902
  C     -295.297     309.984     -27.182
  C     -295.729     309.061     -28.049
  O     -301.268     309.253     -27.006
  O     -301.615     310.098     -29.451
  H     -301.456     308.482     -26.446
  H     -294.862     306.434     -31.221
  H     -295.058     312.484     -29.350
  H     -295.121     309.778     -26.136
  H     -295.921     308.049     -27.713
  H     -295.874     308.537     -31.287
  H     -295.453     306.802     -29.064
  H     -297.805     306.911     -28.442
  H     -298.377     306.705     -31.445
  H     -300.430     307.911     -30.900
  H     -300.383     306.397     -29.991
  P     -299.017     304.572     -28.494
  C     -297.426     303.081     -27.052
  O     -298.529     303.157     -27.929
  O     -300.142     304.198     -29.572
  O     -299.451     305.566     -27.465
  H     -299.786     303.724     -30.339
  H     -297.464     302.126     -26.519
  H     -297.437     303.893     -26.323
  H     -296.494     303.121     -27.630
  H     -304.171     307.104     -29.612
  H     -302.856     307.670     -30.613
  H     -303.898     308.818     -29.807

 3  4  5  6  7  8  9  10  11  12  13  24  28  29  30  31  32 0
 6-311+G(2d,p)
 ****
 33  34 0
 6-311+G(2d,p)
 ****
 1  2  14  15  16  17  18  19  20  21  22  23  25  26  27 0
 3-21G
 ****
 35  36  37  38  39  40  41  42  43  44  45 0
 3-21G
 ****


