%nproc=1
%NoSave
%Mem=1900MB
#P OB98/GEN NMR

erre ene a

0 1
  C      401.859    -151.934    -817.803
  O      401.716    -153.129    -818.570
  P      401.760    -152.992    -820.173
  C      399.250    -152.245    -820.463
  O      400.634    -151.925    -820.589
  C      398.388    -151.219    -821.218
  O      398.872    -151.103    -822.575
  C      396.906    -151.589    -821.344
  O      396.165    -150.396    -821.653
  C      396.925    -152.503    -822.540
  O      395.627    -152.652    -823.115
  C      397.977    -151.840    -823.454
  N      398.754    -152.801    -824.272
  C      399.759    -152.307    -825.094
  O      400.061    -151.119    -825.177
  N      400.428    -153.236    -825.865
  C      400.193    -154.578    -825.864
  O      400.749    -155.355    -826.645
  C      399.213    -155.064    -824.880
  C      398.545    -154.167    -824.161
  O      401.184    -154.393    -820.679
  O      403.116    -152.702    -820.714
  H      395.745    -153.216    -823.918
  H      401.902    -154.947    -821.028
  H      401.112    -152.885    -826.509
  H      399.062    -156.138    -824.807
  H      397.801    -154.517    -823.435
  H      397.513    -151.126    -824.156
  H      397.267    -153.504    -822.244
  H      396.478    -152.074    -820.457
  H      398.490    -150.238    -820.741
  H      398.982    -152.279    -819.407
  H      399.067    -153.244    -820.875
  P      395.120    -149.853    -820.565
  C      393.590    -151.902    -820.263
  O      394.644    -151.142    -819.713
  O      394.027    -148.986    -821.085
  O      396.056    -149.081    -819.517
  H      395.526    -148.461    -818.989
  H      393.698    -152.937    -819.935
  H      393.588    -151.870    -821.359
  H      392.634    -151.513    -819.888
  H      401.811    -152.171    -816.761
  H      401.070    -151.255    -818.051
  H      402.803    -151.480    -818.022

 3  4  5  6  7  8  9  10  11  12  13  23  28  29  30  31  32 0
 6-311+G(2d,p)
 ****
 33  34 0
 6-311+G(2d,p)
 ****
 1  2  14  15  16  17  18  19  20  21  22  24  25  26  27 0
 3-21G
 ****
 35  36  37  38  39  40  41  42  43  44  45 0
 3-21G
 ****


