%nproc=1
%NoSave
%Mem=1900MB
#P OB98/GEN NMR

erre ene a

0 1
  C     -424.491    -168.306     157.880
  O     -424.238    -167.569     159.057
  H     -424.660    -167.612     157.059
  H     -425.383    -168.924     158.014
  H     -423.634    -168.943     157.634
  P     -423.843    -168.404     160.372
  C     -426.113    -167.928     161.564
  O     -425.227    -168.897     161.025
  C     -427.556    -168.446     161.492
  O     -427.627    -169.723     162.182
  C     -428.569    -167.509     162.158
  O     -429.791    -167.529     161.403
  C     -428.795    -168.142     163.522
  O     -430.037    -167.789     164.121
  C     -428.680    -169.629     163.166
  N     -428.379    -170.465     164.336
  C     -429.323    -170.502     165.356
  O     -430.421    -169.944     165.319
  N     -428.958    -171.221     166.469
  C     -427.768    -171.857     166.665
  O     -427.495    -172.464     167.688
  C     -426.803    -171.776     165.550
  C     -427.150    -171.093     164.457
  O     -423.344    -167.270     161.389
  O     -422.832    -169.484     160.176
  H     -422.385    -167.127     161.304
  H     -430.230    -168.453     164.821
  H     -429.634    -171.259     167.226
  H     -425.849    -172.267     165.670
  H     -426.454    -171.001     163.623
  H     -429.605    -169.980     162.691
  H     -427.989    -167.845     164.211
  H     -428.207    -166.474     162.240
  H     -427.812    -168.629     160.444
  H     -426.035    -167.007     160.993
  H     -425.835    -167.728     162.605
  P     -430.391    -166.112     160.938
  C     -431.850    -165.715     163.073
  O     -430.740    -165.309     162.282
  O     -431.812    -166.548     160.351
  O     -429.499    -165.396     159.968
  H     -432.236    -167.271     160.852
  H     -431.935    -165.073     163.925
  H     -431.706    -166.724     163.399
  H     -432.745    -165.653     162.490

 6  7  8  9  10  11  12  13  14  15  16  27  31  32  33  34  35 0
 6-311+G(2d,p)
 ****
 36  37 0
 6-311+G(2d,p)
 ****
 1  2  3  4  5  17  18  19  20  21  22  23  24  25 0
 3-21G
 ****
 26  28  29  30  38  39  40  41  42  43  44  45 0
 3-21G
 ****


