%nproc=1
%NoSave
%Mem=1900MB
#P OB98/GEN NMR

erre ene a

0 1
  C      -52.240    -203.417     214.938
  O      -51.184    -202.643     214.408
  H      -52.182    -203.387     216.033
  H      -52.143    -204.457     214.615
  H      -53.211    -203.023     214.627
  P      -51.155    -202.351     212.830
  C      -49.836    -204.437     212.083
  O      -49.815    -203.026     212.260
  C      -48.411    -204.992     212.155
  O      -48.419    -206.413     211.891
  C      -47.456    -204.382     211.132
  O      -47.057    -203.079     211.522
  C      -46.341    -205.421     211.131
  O      -45.471    -205.239     212.257
  C      -47.154    -206.739     211.266
  N      -47.358    -207.423     209.991
  C      -46.394    -208.361     209.630
  O      -45.393    -208.592     210.311
  N      -46.613    -209.020     208.446
  C      -47.632    -208.770     207.568
  O      -47.750    -209.355     206.492
  C      -48.592    -207.742     207.986
  C      -48.421    -207.128     209.157
  O      -51.360    -200.930     212.425
  O      -52.308    -203.301     212.254
  H      -44.885    -204.485     212.045
  H      -53.116    -202.777     212.089
  H      -45.922    -209.696     208.165
  H      -49.417    -207.514     207.308
  H      -49.119    -206.366     209.479
  H      -46.636    -207.433     211.950
  H      -45.721    -205.371     210.239
  H      -47.920    -204.364     210.138
  H      -48.038    -204.838     213.179
  H      -50.264    -204.663     211.101
  H      -50.465    -204.885     212.857
  P      -46.990    -201.889     210.454
  C      -44.717    -202.391     209.382
  O      -45.438    -201.517     210.238
  O      -47.875    -200.718     210.746
  O      -47.395    -202.588     209.071
  H      -48.303    -202.320     208.815
  H      -43.703    -202.059     209.305
  H      -45.167    -202.391     208.411
  H      -44.738    -203.382     209.785

 6  7  8  9  10  11  12  13  14  15  16  26  31  32  33  34  35 0
 6-311+G(2d,p)
 ****
 36  37 0
 6-311+G(2d,p)
 ****
 1  2  3  4  5  17  18  19  20  21  22  23  24  25 0
 3-21G
 ****
 27  28  29  30  38  39  40  41  42  43  44  45 0
 3-21G
 ****


