%nproc=1
%NoSave
%Mem=1900MB
#P OB98/GEN NMR

erre ene a

0 1
  C     -160.086     107.802     334.604
  O     -161.132     106.885     334.840
  H     -160.505     108.690     334.124
  H     -159.341     107.365     333.937
  H     -159.617     108.102     335.549
  P     -160.801     105.460     335.507
  C     -161.533     104.373     337.715
  O     -161.895     105.271     336.674
  C     -162.505     104.474     338.891
  O     -162.250     105.705     339.624
  C     -163.986     104.480     338.475
  O     -164.729     103.573     339.290
  C     -164.434     105.910     338.763
  O     -165.832     106.023     338.981
  C     -163.540     106.251     339.965
  N     -163.491     107.685     340.224
  C     -164.493     108.197     341.062
  O     -165.349     107.445     341.534
  N     -164.531     109.545     341.286
  C     -163.677     110.329     340.697
  N     -163.795     111.659     340.942
  C     -162.621     109.828     339.786
  C     -162.582     108.514     339.600
  O     -159.380     105.293     335.938
  O     -161.253     104.383     334.415
  H     -166.064     105.511     339.781
  H     -160.776     103.536     334.581
  H     -161.938     110.524     339.315
  H     -161.845     108.057     338.952
  H     -163.893     105.745     340.878
  H     -164.164     106.550     337.915
  H     -164.134     104.224     337.424
  H     -162.292     103.654     339.591
  H     -164.533     111.957     341.566
  H     -160.508     104.609     338.039
  H     -163.202     112.360     340.524
  H     -161.556     103.351     337.315
  P     -164.732     102.038     338.819
  C     -165.455      99.773     339.866
  O     -165.564     101.187     339.899
  O     -163.221     101.573     339.041
  O     -165.158     101.853     337.401
  H     -162.782     101.439     338.180
  H     -166.062      99.350     340.639
  H     -164.434      99.490     340.019
  H     -165.787      99.412     338.915

 6  7  8  9  10  11  12  13  14  15  16  26  30  31  32  33  35 0
 6-311+G(2d,p)
 ****
 37  38 0
 6-311+G(2d,p)
 ****
 1  2  3  4  5  17  18  19  20  21  22  23  24  25 0
 3-21G
 ****
 27  28  29  34  36  39  40  41  42  43  44  45  46 0
 3-21G
 ****


