%nproc=1
%NoSave
%Mem=1900MB
#P OB98/GEN NMR

erre ene a

0 1
  C     -606.803    -864.947      94.347
  O     -606.438    -866.286      94.017
  P     -606.458    -867.460      95.118
  C     -604.414    -868.674      94.154
  O     -605.806    -868.709      94.404
  C     -603.871    -870.091      93.949
  O     -604.216    -870.898      95.088
  C     -604.415    -870.803      92.723
  O     -603.804    -870.328      91.537
  C     -604.107    -872.252      93.085
  O     -602.744    -872.570      92.829
  C     -604.363    -872.284      94.616
  N     -605.663    -872.796      94.974
  C     -605.693    -874.059      95.557
  O     -604.636    -874.695      95.770
  N     -606.890    -874.607      95.953
  C     -607.987    -873.968      95.740
  N     -609.155    -874.508      96.186
  C     -608.025    -872.630      95.071
  C     -606.852    -872.123      94.718
  O     -607.799    -867.703      95.738
  O     -605.336    -867.025      96.167
  H     -602.625    -873.515      93.000
  H     -605.677    -866.434      96.883
  H     -608.985    -872.139      94.910
  H     -606.789    -871.148      94.262
  H     -603.589    -872.864      95.121
  H     -604.736    -872.976      92.537
  H     -605.505    -870.661      92.662
  H     -602.755    -870.028      93.912
  H     -609.046    -875.315      96.797
  H     -603.915    -868.216      95.032
  H     -609.977    -873.936      96.345
  H     -604.210    -868.053      93.286
  P     -604.755    -870.125      90.262
  C     -602.620    -870.728      88.918
  O     -603.763    -869.901      89.009
  O     -605.392    -868.663      90.513
  O     -605.808    -871.178      90.084
  H     -606.311    -868.754      90.862
  H     -602.202    -870.626      87.923
  H     -602.885    -871.789      89.086
  H     -601.878    -870.407      89.666
  H     -606.721    -864.330      93.477
  H     -606.150    -864.577      95.109
  H     -607.812    -864.930      94.703

 3  4  5  6  7  8  9  10  11  12  13  23  27  28  29  30  32 0
 6-311+G(2d,p)
 ****
 34  35 0
 6-311+G(2d,p)
 ****
 1  2  14  15  16  17  18  19  20  21  22  24  25  26 0
 3-21G
 ****
 31  33  36  37  38  39  40  41  42  43  44  45  46 0
 3-21G
 ****


