%nproc=1
%NoSave
%Mem=1900MB
#P OB98/GEN NMR

erre ene a

0 1
  C     -581.833    -268.576    -169.556
  O     -583.024    -268.179    -168.906
  H     -581.995    -268.639    -170.637
  H     -581.059    -267.827    -169.362
  H     -581.496    -269.543    -169.172
  P     -584.303    -269.131    -169.100
  C     -583.147    -270.811    -167.480
  O     -583.785    -270.606    -168.735
  C     -583.439    -272.225    -166.993
  O     -584.862    -272.401    -166.791
  C     -583.024    -273.314    -167.976
  O     -581.646    -273.625    -167.893
  C     -583.884    -274.469    -167.499
  O     -583.313    -275.041    -166.308
  C     -585.204    -273.758    -167.171
  N     -590.028    -274.638    -168.650
  C     -589.423    -274.725    -167.443
  N     -588.143    -274.449    -167.130
  C     -587.462    -274.044    -168.213
  C     -587.942    -273.906    -169.504
  C     -589.294    -274.228    -169.712
  N     -589.902    -274.175    -170.944
  N     -586.937    -273.484    -170.353
  C     -585.876    -273.359    -169.582
  N     -586.134    -273.718    -168.287
  O     -584.492    -269.198    -170.687
  O     -585.542    -268.714    -168.378
  H     -583.303    -274.342    -165.630
  H     -585.368    -269.564    -170.910
  H     -590.057    -275.054    -166.626
  H     -584.902    -273.025    -169.916
  H     -585.732    -274.219    -166.324
  H     -583.957    -275.277    -168.236
  H     -583.312    -273.057    -169.004
  H     -582.945    -272.364    -166.022
  H     -583.537    -270.084    -166.759
  H     -590.830    -274.568    -171.018
  H     -589.335    -274.016    -171.761
  H     -582.070    -270.664    -167.592
  P     -580.985    -274.403    -169.138
  C     -579.737    -272.374    -170.174
  O     -580.795    -273.316    -170.303
  O     -582.188    -275.313    -169.668
  O     -579.774    -275.210    -168.791
  H     -581.853    -276.150    -170.041
  H     -579.737    -271.720    -171.021
  H     -578.802    -272.892    -170.123
  H     -579.876    -271.801    -169.281

 6  7  8  9  10  11  12  13  14  15  25  28  32  33  34  35 0
 6-311+G(2d,p)
 ****
 36  39  40 0
 6-311+G(2d,p)
 ****
 1  2  3  4  5  16  17  18  19  20  21  22  23  24 0
 3-21G
 ****
 26  27  29  30  31  37  38  41  42  43  44  45  46  47 0
 3-21G
 ****
 48 0
 3-21G
 ****


