%nproc=1
%NoSave
%Mem=1900MB
#P OB98/GEN NMR

erre ene a

0 1
  C     -180.600     -11.324      34.875
  O     -180.593      -9.912      34.854
  H     -179.820     -11.700      35.544
  H     -181.573     -11.667      35.237
  H     -180.443     -11.714      33.864
  P     -179.207      -9.212      34.449
  C     -176.760      -9.400      35.285
  O     -178.129      -9.666      35.549
  C     -175.891      -9.945      36.409
  O     -176.108      -9.190      37.619
  C     -176.169     -11.395      36.786
  O     -175.571     -12.306      35.875
  C     -175.513     -11.461      38.158
  O     -174.091     -11.638      38.006
  C     -175.810     -10.069      38.735
  N     -177.286     -10.721      43.611
  C     -176.077     -10.819      43.014
  N     -175.762     -10.644      41.716
  C     -176.851     -10.318      40.999
  C     -178.146     -10.181      41.468
  C     -178.352     -10.403      42.840
  N     -179.592     -10.317      43.436
  N     -178.998      -9.824      40.447
  C     -178.234      -9.747      39.376
  N     -176.926     -10.044      39.660
  O     -179.454      -7.666      34.793
  O     -178.790      -9.396      33.029
  H     -173.958     -12.535      37.649
  H     -178.992      -7.117      34.131
  H     -175.248     -11.069      43.672
  H     -178.579      -9.476      38.386
  H     -174.935      -9.650      39.246
  H     -175.882     -12.286      38.771
  H     -177.245     -11.579      36.891
  H     -174.840      -9.814      36.118
  H     -176.609      -8.317      35.206
  H     -179.646     -10.291      44.438
  H     -180.384     -10.071      42.849
  H     -176.488      -9.865      34.331
  P     -176.314     -13.709      35.636
  C     -176.918     -15.726      37.152
  O     -176.232     -14.485      37.038
  O     -175.282     -14.512      34.711
  O     -177.663     -13.614      35.011
  H     -175.762     -15.182      34.185
  H     -176.775     -16.124      38.135
  H     -176.533     -16.414      36.429
  H     -177.963     -15.573      36.978

 6  7  8  9  10  11  12  13  14  15  25  28  32  33  34  35 0
 6-311+G(2d,p)
 ****
 36  39  40 0
 6-311+G(2d,p)
 ****
 1  2  3  4  5  16  17  18  19  20  21  22  23  24 0
 3-21G
 ****
 26  27  29  30  31  37  38  41  42  43  44  45  46  47  48 0
 3-21G
 ****


