%nproc=1
%NoSave
%Mem=1900MB
#P OB98/GEN NMR

erre ene a

0 1
  C      525.957     -54.363     520.376
  O      526.178     -52.990     520.657
  P      525.671     -52.444     522.083
  C      524.346     -50.498     520.938
  O      525.340     -50.885     521.871
  C      524.070     -49.003     521.066
  O      523.861     -48.645     522.443
  C      525.207     -48.113     520.564
  O      525.141     -47.984     519.154
  C      524.938     -46.821     521.321
  O      523.901     -46.047     520.671
  C      524.461     -47.337     522.688
  N      526.271     -45.370     526.974
  C      525.274     -44.905     526.136
  N      524.646     -43.782     526.525
  N      524.924     -45.496     525.028
  C      525.653     -46.610     524.755
  C      526.682     -47.156     525.495
  C      527.018     -46.523     526.754
  O      527.826     -46.945     527.582
  N      527.198     -48.279     524.888
  C      526.469     -48.415     523.801
  N      525.499     -47.447     523.684
  O      527.000     -52.449     522.966
  O      524.559     -53.229     522.698
  H      524.099     -45.980     519.721
  H      527.036     -53.246     523.527
  H      526.485     -44.885     527.832
  H      526.581     -49.213     523.084
  H      523.668     -46.702     523.117
  H      525.820     -46.176     521.367
  H      524.872     -43.257     527.356
  H      526.179     -48.524     520.876
  H      523.907     -43.423     525.921
  H      523.143     -48.779     520.526
  H      523.426     -51.054     521.145
  H      524.686     -50.742     519.925
  P      526.296     -48.690     518.290
  C      527.683     -47.086     516.782
  O      526.485     -47.825     516.953
  O      525.603     -50.042     517.779
  O      527.548     -48.974     519.047
  H      526.258     -50.761     517.762
  H      527.893     -47.017     515.712
  H      528.535     -47.572     517.276
  H      527.553     -46.085     517.185
  H      526.339     -54.594     519.403
  H      524.907     -54.569     520.405
  H      526.458     -54.962     521.107

 3  4  5  6  7  8  9  10  11  12  23  26  30  31 0
 6-311+G(2d,p)
 ****
 33  35  36  37  38 0
 6-311+G(2d,p)
 ****
 1  2  13  14  15  16  17  18  19  20  21  22  24  25 0
 3-21G
 ****
 27  28  29  32  34  39  40  41  42  43  44  45  46  47  48  49 0
 3-21G
 ****


