%nproc=1
%NoSave
%Mem=1900MB
#P OB98/GEN NMR

erre ene a

0 1
  C     -444.384      -3.194     -11.628
  O     -445.453      -2.805     -10.787
  H     -443.578      -2.444     -11.591
  H     -443.984      -4.151     -11.284
  H     -444.739      -3.300     -12.664
  P     -446.096      -1.365     -11.070
  C     -445.161       1.043     -11.318
  O     -444.892      -0.300     -10.944
  C     -444.592       2.003     -10.294
  O     -443.151       1.846     -10.189
  C     -444.803       3.479     -10.593
  O     -446.117       3.904     -10.266
  C     -443.773       4.111      -9.685
  O     -444.283       4.187      -8.342
  C     -442.607       3.113      -9.741
  N     -438.349       5.944     -10.294
  C     -439.202       5.772      -9.250
  N     -440.320       5.019      -9.182
  C     -440.522       4.369     -10.332
  C     -439.766       4.445     -11.498
  C     -438.625       5.283     -11.446
  N     -437.788       5.462     -12.533
  N     -440.280       3.640     -12.482
  C     -441.337       3.079     -11.937
  N     -441.544       3.503     -10.641
  O     -446.980      -1.089      -9.758
  O     -446.913      -1.263     -12.314
  H     -445.229       4.441      -8.407
  H     -447.778      -0.596     -10.016
  H     -438.945       6.320      -8.356
  H     -441.990       2.369     -12.438
  H     -442.177       2.932      -8.751
  H     -443.489       5.125      -9.976
  H     -444.550       3.701     -11.640
  H     -445.019       1.749      -9.302
  H     -446.245       1.201     -11.386
  H     -436.897       5.909     -12.373
  H     -437.991       4.955     -13.389
  H     -444.709       1.230     -12.307
  P     -446.661       5.257     -10.959
  C     -446.015       7.764     -10.788
  O     -445.724       6.433     -10.381
  O     -448.058       5.501     -10.230
  O     -446.802       5.194     -12.455
  H     -448.645       6.030     -10.806
  H     -445.319       8.437     -10.332
  H     -447.009       8.020     -10.486
  H     -445.936       7.837     -11.853

 6  7  8  9  10  11  12  13  14  15  25  28  32  33  34  35 0
 6-311+G(2d,p)
 ****
 36  39  40 0
 6-311+G(2d,p)
 ****
 1  2  3  4  5  16  17  18  19  20  21  22  23  24 0
 3-21G
 ****
 26  27  29  30  31  37  38  41  42  43  44  45  46  47  48 0
 3-21G
 ****


