%nproc=1
%NoSave
%Mem=1900MB
#P OB98/GEN NMR

erre ene a

0 1
  C     -231.776     895.152     275.924
  O     -233.025     895.533     276.471
  P     -234.325     894.737     275.969
  C     -235.792     895.242     278.054
  O     -235.574     895.471     276.669
  C     -237.063     895.955     278.511
  O     -236.961     897.375     278.274
  C     -238.336     895.517     277.808
  O     -238.864     894.324     278.349
  C     -239.259     896.688     278.100
  O     -239.768     896.578     279.435
  C     -238.290     897.891     278.002
  N     -241.045     900.830     274.875
  C     -241.329     900.304     276.071
  N     -240.540     899.509     276.841
  C     -239.373     899.259     276.225
  C     -238.951     899.710     274.997
  C     -239.849     900.541     274.293
  N     -239.553     901.115     273.076
  N     -237.690     899.244     274.691
  C     -237.346     898.544     275.739
  N     -238.304     898.521     276.701
  O     -234.214     893.344     276.757
  O     -234.417     894.538     274.503
  H     -240.156     897.442     279.659
  H     -234.727     892.656     276.292
  H     -242.301     900.528     276.483
  H     -236.384     898.033     275.863
  H     -238.510     898.657     278.756
  H     -240.109     896.735     277.427
  H     -238.173     895.426     276.723
  H     -237.158     895.806     279.604
  H     -234.940     895.632     278.625
  H     -240.156     901.843     272.732
  H     -238.589     901.069     272.748
  H     -235.876     894.170     278.233
  P     -239.253     893.159     277.307
  C     -239.165     891.339     279.167
  O     -239.946     892.001     278.202
  O     -237.831     892.537     276.915
  O     -240.023     893.645     276.124
  H     -237.886     892.125     276.021
  H     -239.839     890.838     279.869
  H     -238.544     892.039     279.732
  H     -238.520     890.596     278.682
  H     -231.002     895.760     276.344
  H     -231.797     895.283     274.862
  H     -231.585     894.124     276.153

 3  4  5  6  7  8  9  10  11  12  22  25  29  30  31  32 0
 6-311+G(2d,p)
 ****
 33  36  37 0
 6-311+G(2d,p)
 ****
 1  2  13  14  15  16  17  18  19  20  21  23  24  26 0
 3-21G
 ****
 27  28  34  35  38  39  40  41  42  43  44  45  46  47  48 0
 3-21G
 ****


