%nproc=1
%NoSave
%Mem=1900MB
#P OB98/GEN NMR

erre ene a

0 1
  C      -10.362    1402.961    1344.055
  O       -9.935    1403.943    1344.999
  P      -10.063    1405.503    1344.558
  C       -7.731    1405.612    1343.313
  O       -8.558    1406.037    1344.422
  C       -6.381    1406.296    1343.433
  O       -6.545    1407.734    1343.470
  C       -5.558    1405.932    1344.667
  O       -4.973    1404.637    1344.578
  C       -4.558    1407.106    1344.717
  O       -3.489    1406.866    1343.803
  C       -5.450    1408.282    1344.220
  N       -5.913    1409.115    1345.317
  C       -5.056    1410.103    1345.790
  O       -3.893    1410.261    1345.322
  N       -5.506    1410.892    1346.830
  C       -6.746    1410.732    1347.449
  O       -7.066    1411.437    1348.388
  C       -7.625    1409.695    1346.941
  C       -7.171    1408.931    1345.892
  O      -10.601    1406.108    1345.940
  O      -10.974    1405.689    1343.402
  H      -10.288    1405.591    1346.730
  H       -2.765    1407.493    1344.077
  H       -4.906    1411.589    1347.138
  H       -8.585    1409.538    1347.406
  H       -7.803    1408.149    1345.519
  H       -4.859    1408.908    1343.514
  H       -4.130    1407.244    1345.726
  H       -6.216    1405.972    1345.546
  H       -5.781    1406.035    1342.521
  H       -8.214    1405.919    1342.378
  H       -7.647    1404.532    1343.339
  P       -5.229    1403.637    1345.841
  C       -3.960    1405.179    1347.542
  O       -4.063    1403.932    1346.903
  O       -4.873    1402.243    1345.187
  O       -6.612    1403.705    1346.397
  H       -4.054    1402.273    1344.613
  H       -3.379    1405.086    1348.453
  H       -4.962    1405.611    1347.800
  H       -3.447    1405.883    1346.846
  H      -10.224    1401.984    1344.470
  H       -9.785    1403.053    1343.159
  H      -11.397    1403.110    1343.829

 3  4  5  6  7  8  9  10  11  12  13  24  28  29  30  31  32 0
 6-311+G(2d,p)
 ****
 33  34 0
 6-311+G(2d,p)
 ****
 1  2  14  15  16  17  18  19  20  21  22  23  25  26  27 0
 3-21G
 ****
 35  36  37  38  39  40  41  42  43  44  45 0
 3-21G
 ****


