%nproc=1
%NoSave
%Mem=1900MB
#P OB98/GEN NMR

erre ene a

0 1
  C      132.999     -30.428     144.794
  O      131.701     -30.837     144.388
  P      131.422     -32.342     143.900
  C      131.941     -33.672     141.764
  O      132.143     -32.456     142.473
  C      132.517     -33.562     140.354
  O      131.573     -32.832     139.534
  C      133.836     -32.796     140.229
  O      134.996     -33.571     140.487
  C      133.799     -32.418     138.752
  O      134.187     -33.551     137.950
  C      132.320     -32.094     138.532
  N      132.645     -27.526     136.244
  C      132.991     -28.771     135.837
  N      132.892     -29.937     136.513
  C      132.327     -29.736     137.716
  C      131.919     -28.529     138.266
  C      132.096     -27.384     137.471
  N      131.722     -26.120     137.880
  N      131.405     -28.720     139.536
  C      131.492     -30.019     139.735
  N      132.034     -30.676     138.665
  O      129.991     -32.748     143.942
  O      132.349     -33.240     144.844
  H      133.977     -33.327     137.022
  H      132.061     -34.173     144.810
  H      133.413     -28.840     134.834
  H      131.182     -30.527     140.638
  H      131.959     -32.420     137.549
  H      134.488     -31.603     138.505
  H      133.825     -31.881     140.834
  H      132.614     -34.574     139.937
  H      130.864     -33.861     141.699
  H      131.767     -25.380     137.196
  H      131.169     -26.035     138.721
  H      132.402     -34.501     142.315
  P      136.073     -32.958     141.514
  C      137.264     -30.628     141.488
  O      136.735     -31.710     140.752
  O      137.030     -33.953     142.074
  O      135.146     -32.265     142.626
  H      134.639     -31.496     142.319
  H      137.806     -29.970     140.798
  H      137.961     -30.978     142.251
  H      136.455     -30.059     141.953
  H      132.975     -29.397     145.080
  H      133.684     -30.557     143.982
  H      133.316     -31.022     145.626

 3  4  5  6  7  8  9  10  11  12  22  25  29  30  31  32 0
 6-311+G(2d,p)
 ****
 33  36  37 0
 6-311+G(2d,p)
 ****
 1  2  13  14  15  16  17  18  19  20  21  23  24  26 0
 3-21G
 ****
 27  28  34  35  38  39  40  41  42  43  44  45  46  47  48 0
 3-21G
 ****


