%nproc=1
%NoSave
%Mem=1900MB
#P OB98/GEN NMR

erre ene a

0 1
  C      530.424     -70.163     -32.062
  O      529.645     -69.895     -30.916
  H      530.612     -69.219     -32.582
  H      529.886     -70.830     -32.742
  H      531.384     -70.605     -31.784
  P      529.223     -71.123     -29.974
  C      528.752     -69.251     -28.246
  O      528.294     -70.453     -28.843
  C      527.875     -68.889     -27.052
  O      527.774     -69.989     -26.123
  C      528.389     -67.727     -26.209
  O      528.231     -66.459     -26.822
  C      527.511     -67.886     -24.981
  O      526.188     -67.408     -25.268
  C      527.529     -69.421     -24.805
  N      528.555     -69.870     -23.860
  C      528.298     -69.644     -22.503
  O      527.257     -69.093     -22.145
  N      529.236     -70.029     -21.577
  C      530.352     -70.563     -21.975
  N      531.256     -70.914     -21.016
  C      530.675     -70.796     -23.396
  C      529.743     -70.432     -24.272
  O      530.344     -71.974     -29.464
  O      528.147     -71.936     -30.833
  H      526.289     -66.529     -25.680
  H      527.860     -72.717     -30.299
  H      531.627     -71.218     -23.678
  H      529.910     -70.567     -25.336
  H      526.553     -69.787     -24.467
  H      527.879     -67.328     -24.113
  H      529.435     -67.889     -25.915
  H      526.865     -68.691     -27.435
  H      531.004     -70.740     -20.053
  H      528.732     -68.463     -29.003
  H      532.173     -71.267     -21.238
  H      529.783     -69.377     -27.892
  P      529.112     -65.247     -26.232
  C      529.411     -64.535     -28.726
  O      529.178     -64.137     -27.383
  O      530.589     -65.859     -26.193
  O      528.665     -64.731     -24.903
  H      530.808     -66.171     -25.292
  H      529.424     -63.671     -29.357
  H      528.632     -65.196     -29.042
  H      530.353     -65.038     -28.791

 6  7  8  9  10  11  12  13  14  15  16  26  30  31  32  33  35 0
 6-311+G(2d,p)
 ****
 37  38 0
 6-311+G(2d,p)
 ****
 1  2  3  4  5  17  18  19  20  21  22  23  24  25 0
 3-21G
 ****
 27  28  29  34  36  39  40  41  42  43  44  45  46 0
 3-21G
 ****


