%nproc=1
%NoSave
%Mem=1900MB
#P OB98/GEN NMR

erre ene a

0 1
  C       81.165     -43.755     117.252
  O       81.363     -45.023     117.834
  P       82.705     -45.348     118.649
  C       84.086     -47.004     117.246
  O       83.840     -45.633     117.550
  C       83.056     -47.513     116.241
  O       82.870     -46.566     115.156
  C       83.451     -48.806     115.545
  O       83.540     -49.970     116.337
  C       82.471     -48.832     114.384
  O       81.195     -49.323     114.790
  C       82.385     -47.327     114.022
  N       83.123     -47.017     112.800
  C       82.382     -47.010     111.623
  O       81.175     -47.248     111.578
  N       83.081     -46.749     110.478
  C       84.430     -46.547     110.389
  O       84.998     -46.360     109.321
  C       85.161     -46.579     111.661
  C       84.489     -46.810     112.793
  O       82.574     -46.402     119.696
  O       83.141     -43.915     119.220
  H       80.638     -49.394     113.992
  H       83.313     -43.240     118.540
  H       82.566     -46.753     109.612
  H       86.229     -46.409     111.630
  H       85.009     -46.841     113.747
  H       81.337     -47.031     113.876
  H       82.821     -49.477     113.569
  H       84.453     -48.669     115.115
  H       82.095     -47.608     116.754
  H       84.009     -47.593     118.165
  H       85.108     -47.113     116.861
  P       84.442     -51.236     115.952
  C       83.090     -53.296     115.149
  O       83.686     -52.065     114.807
  O       85.036     -52.008     117.083
  O       85.630     -50.538     115.119
  H       86.449     -51.052     115.246
  H       82.662     -53.743     114.246
  H       82.288     -53.144     115.877
  H       83.837     -53.985     115.555
  H       80.217     -43.734     116.756
  H       81.943     -43.562     116.543
  H       81.184     -43.005     118.015

 3  4  5  6  7  8  9  10  11  12  13  23  28  29  30  31  32 0
 6-311+G(2d,p)
 ****
 33  34 0
 6-311+G(2d,p)
 ****
 1  2  14  15  16  17  18  19  20  21  22  24  25  26  27 0
 3-21G
 ****
 35  36  37  38  39  40  41  42  43  44  45 0
 3-21G
 ****


