%nproc=1
%NoSave
%Mem=1900MB
#P OB98/GEN NMR

erre ene a

0 1
  C      197.250    -152.097    -338.225
  O      198.427    -151.999    -337.446
  H      196.383    -151.976    -337.571
  H      197.193    -153.080    -338.706
  H      197.237    -151.309    -338.983
  P      199.820    -152.206    -338.214
  C      200.564    -149.781    -337.747
  O      200.824    -151.162    -337.517
  C      201.451    -148.915    -336.854
  O      201.012    -149.071    -335.476
  C      202.937    -149.292    -336.911
  O      203.728    -148.104    -336.795
  C      203.131    -150.138    -335.665
  O      204.486    -150.171    -335.233
  C      202.159    -149.465    -334.696
  N      203.462    -151.141    -330.069
  C      203.931    -150.126    -330.829
  N      203.511    -149.735    -332.049
  C      202.453    -150.470    -332.445
  C      201.863    -151.533    -331.779
  C      202.422    -151.875    -330.534
  N      201.975    -152.922    -329.764
  N      200.831    -152.061    -332.530
  C      200.793    -151.327    -333.628
  N      201.766    -150.365    -333.627
  O      199.753    -152.127    -339.701
  O      200.318    -153.608    -337.623
  H      204.526    -150.658    -334.381
  H      200.227    -153.638    -336.648
  H      204.768    -149.566    -330.409
  H      200.095    -151.463    -334.449
  H      202.588    -148.564    -334.229
  H      202.817    -151.173    -335.869
  H      203.208    -149.830    -337.818
  H      201.299    -147.862    -337.117
  H      199.506    -149.558    -337.544
  H      202.433    -153.094    -328.881
  H      201.193    -153.481    -330.088
  H      200.765    -149.572    -338.805
  P      204.478    -147.536    -338.094
  C      204.482    -145.064    -337.366
  O      205.273    -146.201    -337.690
  O      203.642    -147.430    -339.327
  O      205.668    -148.597    -338.299
  H      205.760    -148.795    -339.256
  H      205.122    -144.244    -337.116
  H      203.853    -145.293    -336.531
  H      203.876    -144.800    -338.207

 6  7  8  9  10  11  12  13  14  15  25  28  32  33  34  35 0
 6-311+G(2d,p)
 ****
 36  39  40 0
 6-311+G(2d,p)
 ****
 1  2  3  4  5  16  17  18  19  20  21  22  23  24 0
 3-21G
 ****
 26  27  29  30  31  37  38  41  42  43  44  45  46  47 0
 3-21G
 ****
 48 0
 3-21G
 ****


