%nproc=1
%NoSave
%Mem=1900MB
#P OB98/GEN NMR

erre ene a

0 1
  C      -87.184     275.411    -169.795
  O      -85.870     274.939    -169.613
  H      -87.725     274.702    -170.427
  H      -87.178     276.380    -170.299
  H      -87.703     275.489    -168.836
  P      -84.831     275.815    -168.755
  C      -83.229     277.757    -169.274
  O      -84.283     276.938    -169.772
  C      -82.526     278.498    -170.409
  O      -81.727     277.560    -171.183
  C      -83.490     279.199    -171.385
  O      -83.044     280.530    -171.630
  C      -83.369     278.377    -172.656
  O      -83.721     279.112    -173.825
  C      -81.914     277.915    -172.569
  N      -81.630     276.803    -173.470
  C      -81.441     277.135    -174.816
  O      -81.512     278.313    -175.180
  N      -81.239     276.124    -175.724
  C      -81.269     274.892    -175.331
  N      -81.088     273.934    -176.282
  C      -81.494     274.497    -173.918
  C      -81.664     275.496    -173.052
  O      -83.773     275.023    -168.059
  O      -85.743     276.661    -167.750
  H      -82.992     279.740    -174.030
  H      -85.195     276.941    -166.982
  H      -81.513     273.453    -173.646
  H      -81.839     275.301    -171.998
  H      -81.222     278.742    -172.803
  H      -84.039     277.509    -172.591
  H      -84.516     279.229    -171.020
  H      -81.817     279.213    -169.973
  H      -80.941     274.255    -177.236
  H      -82.517     277.118    -168.735
  H      -81.111     272.946    -176.099
  H      -83.657     278.487    -168.581
  P      -84.044     281.711    -171.190
  C      -86.103     282.922    -172.215
  O      -85.141     281.887    -172.353
  O      -83.140     283.030    -171.306
  O      -84.594     281.540    -169.811
  H      -82.951     283.379    -170.415
  H      -86.759     282.914    -173.060
  H      -85.605     283.867    -172.160
  H      -86.670     282.765    -171.321

 6  7  8  9  10  11  12  13  14  15  16  26  30  31  32  33  35 0
 6-311+G(2d,p)
 ****
 37  38 0
 6-311+G(2d,p)
 ****
 1  2  3  4  5  17  18  19  20  21  22  23  24  25 0
 3-21G
 ****
 27  28  29  34  36  39  40  41  42  43  44  45  46 0
 3-21G
 ****


