%nproc=1
%NoSave
%Mem=1900MB
#P OB98/GEN NMR

erre ene a

0 1
  C      852.873     809.858    -172.123
  O      852.763     809.131    -173.358
  P      851.748     809.541    -174.525
  C      850.575     807.283    -174.942
  O      851.464     808.264    -175.455
  C      849.858     806.522    -176.070
  O      850.760     805.590    -176.690
  C      848.667     805.684    -175.623
  O      847.545     806.513    -175.365
  C      848.504     804.738    -176.815
  O      847.779     805.362    -177.878
  C      849.978     804.486    -177.203
  N      850.466     803.211    -176.731
  C      850.664     802.207    -177.703
  O      850.348     802.435    -178.880
  N      851.163     800.998    -177.317
  C      851.390     800.767    -176.057
  N      851.905     799.546    -175.734
  C      851.131     801.755    -174.996
  C      850.681     802.934    -175.397
  O      852.154     810.764    -175.284
  O      850.342     809.781    -173.791
  H      846.882     805.517    -177.547
  H      849.841     810.460    -174.276
  H      851.311     801.505    -173.968
  H      850.459     803.718    -174.684
  H      850.085     804.533    -178.294
  H      847.965     803.820    -176.531
  H      848.921     805.110    -174.728
  H      849.556     807.251    -176.824
  H      852.082     798.892    -176.490
  H      849.823     807.790    -174.319
  H      852.116     799.266    -174.791
  H      851.135     806.591    -174.311
  P      847.153     806.898    -173.858
  C      844.591     806.714    -173.882
  O      845.714     807.589    -173.889
  O      848.203     807.631    -173.092
  O      846.844     805.475    -173.169
  H      847.085     805.520    -172.232
  H      843.722     807.277    -173.504
  H      844.768     805.854    -173.243
  H      844.391     806.391    -174.907
  H      853.614     809.398    -171.503
  H      851.930     809.849    -171.618
  H      853.158     810.869    -172.328

 3  4  5  6  7  8  9  10  11  12  13  23  27  28  29  30  32 0
 6-311+G(2d,p)
 ****
 34  35 0
 6-311+G(2d,p)
 ****
 1  2  14  15  16  17  18  19  20  21  22  24  25  26 0
 3-21G
 ****
 31  33  36  37  38  39  40  41  42  43  44  45  46 0
 3-21G
 ****


