%nproc=1
%NoSave
%Mem=1900MB
#P OB98/GEN NMR

erre ene a

0 1
  C      -93.812    -541.193     106.139
  O      -94.189    -542.488     105.709
  H      -92.887    -541.271     106.715
  H      -94.594    -540.768     106.774
  H      -93.639    -540.545     105.276
  P      -95.523    -542.586     104.825
  C      -96.907    -544.727     105.377
  O      -95.827    -544.152     104.656
  C      -96.687    -546.233     105.555
  O      -96.365    -546.814     104.257
  C      -95.531    -546.590     106.503
  O      -95.823    -547.860     107.108
  C      -94.374    -546.744     105.528
  O      -93.277    -547.384     106.141
  C      -95.089    -547.484     104.401
  N      -93.786    -550.263     100.315
  C      -94.574    -550.537     101.373
  N      -94.885    -549.744     102.415
  C      -94.302    -548.537     102.287
  C      -93.480    -548.109     101.258
  C      -93.216    -549.036     100.235
  N      -92.406    -548.761      99.159
  N      -93.066    -546.806     101.478
  C      -93.635    -546.457     102.616
  N      -94.383    -547.474     103.143
  O      -95.036    -542.132     103.372
  O      -96.676    -541.772     105.312
  H      -92.510    -547.425     105.530
  H      -95.218    -541.181     103.242
  H      -95.016    -551.534     101.384
  H      -93.530    -545.496     103.102
  H      -95.291    -548.529     104.665
  H      -94.014    -545.766     105.188
  H      -95.361    -545.840     107.284
  H      -97.627    -546.695     105.882
  H      -97.833    -544.549     104.816
  H      -96.984    -544.250     106.359
  H      -92.256    -549.483      98.474
  H      -91.963    -547.856      99.096
  P      -96.650    -547.896     108.487
  C      -95.751    -550.085     109.608
  O      -96.822    -549.425     108.942
  O      -98.135    -547.531     107.994
  O      -96.194    -546.945     109.542
  H      -98.620    -547.098     108.725
  H      -96.038    -551.090     109.836
  H      -95.521    -549.566     110.515
  H      -94.889    -550.095     108.974

 6  7  8  9  10  11  12  13  14  15  25  28  32  33  34  35 0
 6-311+G(2d,p)
 ****
 36  37  40 0
 6-311+G(2d,p)
 ****
 1  2  3  4  5  16  17  18  19  20  21  22  23  24 0
 3-21G
 ****
 26  27  29  30  31  38  39 41  42  43  44  45  46  47  48 0
 3-21G
 ****


