%nproc=1
%NoSave
%Mem=1900MB
#P OB98/GEN NMR

erre ene a

0 1
  C     -260.982    -157.900     -54.335
  O     -261.913    -156.838     -54.262
  H     -260.817    -158.152     -55.384
  H     -261.377    -158.779     -53.820
  H     -260.030    -157.604     -53.887
  P     -262.215    -156.231     -52.810
  C     -263.358    -154.117     -53.814
  O     -263.483    -155.261     -52.982
  C     -263.583    -154.509     -55.274
  O     -264.844    -155.227     -55.371
  C     -263.667    -153.304     -56.220
  O     -263.057    -153.649     -57.468
  C     -265.162    -153.117     -56.416
  O     -265.503    -152.439     -57.614
  C     -265.645    -154.570     -56.376
  N     -267.066    -154.684     -56.062
  C     -267.973    -154.439     -57.089
  O     -267.661    -154.209     -58.258
  N     -269.295    -154.463     -56.728
  C     -269.787    -154.677     -55.472
  O     -270.983    -154.664     -55.208
  C     -268.780    -154.922     -54.428
  C     -267.489    -154.912     -54.764
  O     -261.004    -155.208     -52.577
  O     -262.346    -157.228     -51.708
  H     -260.258    -155.660     -52.137
  H     -266.474    -152.309     -57.622
  H     -269.966    -154.286     -57.462
  H     -269.132    -155.088     -53.420
  H     -266.720    -155.075     -54.017
  H     -265.439    -155.068     -57.335
  H     -265.578    -152.549     -55.574
  H     -263.195    -152.411     -55.813
  H     -262.792    -155.203     -55.584
  H     -262.349    -153.701     -53.703
  H     -264.089    -153.363     -53.506
  P     -261.631    -152.984     -57.799
  C     -261.062    -154.948     -59.432
  O     -261.209    -153.550     -59.244
  O     -260.678    -153.756     -56.778
  O     -261.637    -151.498     -57.669
  H     -260.917    -154.691     -56.649
  H     -260.780    -155.144     -60.445
  H     -261.990    -155.436     -59.219
  H     -260.305    -155.319     -58.773

 6  7  8  9  10  11  12  13  14  15  16  27  31  32  33  34  35 0
 6-311+G(2d,p)
 ****
 36  37 0
 6-311+G(2d,p)
 ****
 1  2  3  4  5  17  18  19  20  21  22  23  24  25 0
 3-21G
 ****
 26  28  29  30  38  39  40  41  42  43  44  45 0
 3-21G
 ****


