%nproc=1
%NoSave
%Mem=1900MB
#P OB98/GEN NMR

erre ene a

0 1
  C      -38.464     -57.394     -12.494
  O      -39.813     -57.133     -12.825
  H      -38.438     -58.127     -11.683
  H      -37.973     -56.478     -12.156
  H      -37.937     -57.804     -13.358
  P      -40.080     -56.033     -13.961
  C      -40.789     -54.317     -12.144
  O      -39.947     -54.600     -13.252
  C      -41.436     -52.948     -12.327
  O      -40.416     -51.922     -12.351
  C      -42.198     -52.792     -13.635
  O      -43.474     -53.406     -13.591
  C      -42.277     -51.278     -13.743
  O      -43.377     -50.752     -12.984
  C      -40.926     -50.831     -13.143
  N      -39.980     -50.412     -14.172
  C      -39.712     -49.048     -14.226
  O      -40.231     -48.228     -13.467
  N      -38.854     -48.645     -15.213
  C      -38.281     -49.451     -16.152
  O      -37.578     -49.017     -17.055
  C      -38.588     -50.887     -16.036
  C      -39.418     -51.294     -15.073
  O      -41.649     -56.176     -14.242
  O      -39.268     -56.195     -15.202
  H      -41.795     -56.669     -15.070
  H      -43.293     -49.779     -13.021
  H      -38.657     -47.659     -15.275
  H      -38.144     -51.556     -16.763
  H      -39.676     -52.346     -14.981
  H      -41.075     -49.987     -12.457
  H      -42.423     -50.957     -14.775
  H      -41.602     -53.176     -14.471
  H      -42.095     -52.757     -11.469
  H      -40.194     -54.311     -11.224
  H      -41.550     -55.101     -12.065
  P      -44.075     -54.023     -14.944
  C      -45.226     -51.791     -15.713
  O      -44.261     -52.796     -15.960
  O      -45.564     -54.381     -14.486
  O      -43.288     -55.169     -15.483
  H      -45.932     -53.740     -13.855
  H      -45.195     -51.066     -16.500
  H      -45.013     -51.313     -14.780
  H      -46.199     -52.233     -15.673

 6  7  8  9  10  11  12  13  14  15  16  27  31  32  33  34  35 0
 6-311+G(2d,p)
 ****
 36  37 0
 6-311+G(2d,p)
 ****
 1  2  3  4  5  17  18  19  20  21  22  23  24  25 0
 3-21G
 ****
 26  28  29  30  38  39  40  41  42  43  44  45 0
 3-21G
 ****


