%nproc=1
%NoSave
%Mem=1900MB
#P OB98/GEN NMR

erre ene a

0 1
  C      -76.471    -111.633    -173.957
  O      -75.472    -110.665    -173.687
  P      -75.829    -109.260    -172.990
  C      -76.244    -108.367    -175.382
  O      -76.734    -108.476    -174.056
  C      -76.466    -106.951    -175.915
  O      -77.888    -106.755    -176.136
  C      -75.987    -105.838    -174.974
  O      -75.495    -104.770    -175.791
  C      -77.262    -105.424    -174.263
  O      -77.183    -104.115    -173.718
  C      -78.286    -105.586    -175.391
  N      -79.650    -105.721    -174.893
  C      -80.495    -104.615    -175.002
  O      -80.091    -103.556    -175.481
  N      -81.790    -104.732    -174.563
  C      -82.184    -105.827    -173.988
  N      -83.492    -105.912    -173.626
  C      -81.293    -106.979    -173.754
  C      -80.063    -106.866    -174.249
  O      -74.653    -108.495    -172.488
  O      -76.896    -109.638    -171.864
  H      -78.046    -103.898    -173.314
  H      -76.475    -109.928    -171.016
  H      -81.659    -107.858    -173.244
  H      -79.348    -107.671    -174.146
  H      -78.227    -104.738    -176.082
  H      -77.464    -106.119    -173.442
  H      -75.194    -106.168    -174.298
  H      -75.969    -106.867    -176.890
  H      -84.107    -105.176    -173.956
  H      -76.795    -109.071    -176.012
  H      -83.935    -106.814    -173.483
  H      -75.183    -108.637    -175.408
  P      -74.085    -104.105    -175.408
  C      -74.964    -102.336    -173.725
  O      -74.203    -103.508    -173.926
  O      -74.102    -102.771    -176.307
  O      -72.865    -104.907    -175.720
  H      -73.183    -102.494    -176.480
  H      -74.939    -102.082    -172.660
  H      -76.004    -102.497    -174.018
  H      -74.542    -101.503    -174.293
  H      -76.024    -112.488    -174.420
  H      -77.205    -111.215    -174.614
  H      -76.939    -111.928    -173.041

 3  4  5  6  7  8  9  10  11  12  13  23  27  28  29  30  32 0
 6-311+G(2d,p)
 ****
 34  35 0
 6-311+G(2d,p)
 ****
 1  2  14  15  16  17  18  19  20  21  22  24  25  26 0
 3-21G
 ****
 31  33  36  37  38  39  40  41  42  43  44  45  46 0
 3-21G
 ****


