%nproc=1
%NoSave
%Mem=1900MB
#P OB98/GEN NMR

erre ene a

0 1
  C      -84.541    -391.652     -92.500
  O      -84.051    -390.503     -93.163
  H      -84.872    -391.367     -91.500
  H      -83.747    -392.398     -92.409
  H      -85.387    -392.075     -93.047
  P      -83.616    -390.674     -94.695
  C      -84.103    -388.202     -95.356
  O      -83.132    -389.225     -95.191
  C      -84.120    -387.299     -94.124
  O      -82.794    -386.729     -93.948
  C      -85.109    -386.132     -94.239
  O      -85.687    -385.884     -92.954
  C      -84.225    -384.964     -94.638
  O      -84.768    -383.696     -94.309
  C      -82.940    -385.296     -93.873
  N      -81.766    -384.625     -94.425
  C      -81.164    -383.641     -93.648
  O      -81.502    -383.351     -92.500
  N      -80.124    -382.973     -94.242
  C      -79.658    -383.169     -95.510
  O      -78.736    -382.521     -95.993
  C      -80.339    -384.215     -96.285
  C      -81.346    -384.882     -95.718
  O      -85.012    -390.872     -95.457
  O      -82.650    -391.776     -94.972
  H      -85.240    -391.819     -95.506
  H      -84.136    -383.009     -94.603
  H      -79.675    -382.256     -93.690
  H      -80.003    -384.392     -97.297
  H      -81.881    -385.651     -96.267
  H      -83.049    -385.034     -92.810
  H      -84.046    -384.986     -95.721
  H      -85.897    -386.314     -94.970
  H      -84.328    -387.910     -93.235
  H      -85.091    -388.661     -95.481
  H      -83.865    -387.619     -96.251
  P      -87.265    -386.146     -92.793
  C      -86.882    -386.913     -90.321
  O      -87.566    -386.052     -91.216
  O      -87.362    -387.704     -93.123
  O      -88.094    -385.257     -93.658
  H      -86.606    -388.221     -92.793
  H      -87.203    -386.714     -89.320
  H      -85.828    -386.743     -90.398
  H      -87.099    -387.931     -90.570

 6  7  8  9  10  11  12  13  14  15  16  27  31  32  33  34  35 0
 6-311+G(2d,p)
 ****
 36  37 0
 6-311+G(2d,p)
 ****
 1  2  3  4  5  17  18  19  20  21  22  23  24  25 0
 3-21G
 ****
 26  28  29  30  38  39  40  41  42  43  44  45 0
 3-21G
 ****


