%nproc=1
%NoSave
%Mem=1900MB
#P OB98/GEN NMR

erre ene a

0 1
  C      804.654    -476.018     329.374
  O      805.014    -475.011     328.446
  H      803.974    -475.587     330.106
  H      805.538    -476.399     329.896
  H      804.142    -476.843     328.859
  P      806.079    -475.370     327.298
  C      806.380    -473.269     325.808
  O      806.831    -474.001     326.945
  C      807.510    -472.435     325.214
  O      807.878    -471.369     326.126
  C      808.799    -473.215     324.961
  O      808.661    -474.031     323.808
  C      809.803    -472.076     324.841
  O      809.725    -471.454     323.555
  C      809.299    -471.113     325.951
  N      810.004    -471.270     327.209
  C      811.182    -470.512     327.364
  O      811.569    -469.797     326.434
  N      811.888    -470.615     328.542
  C      811.448    -471.371     329.499
  N      812.187    -471.420     330.641
  C      810.193    -472.145     329.403
  C      809.537    -472.066     328.250
  O      805.547    -476.111     326.112
  O      807.200    -476.217     328.065
  H      810.385    -470.726     323.561
  H      807.017    -477.172     327.991
  H      809.849    -472.759     330.247
  H      808.607    -472.603     328.098
  H      809.402    -470.079     325.629
  H      810.830    -472.422     324.971
  H      809.055    -473.827     325.831
  H      807.139    -471.969     324.295
  H      813.024    -470.857     330.668
  H      805.564    -472.615     326.150
  H      811.868    -471.831     331.504
  H      805.975    -473.950     325.050
  P      809.473    -475.402     323.647
  C      807.299    -476.768     323.518
  O      808.486    -476.394     322.841
  O      810.041    -475.962     324.900
  O      810.578    -475.056     322.525
  H      811.321    -474.527     322.937
  H      806.724    -477.422     322.896
  H      806.725    -475.893     323.742
  H      807.551    -477.272     324.428

 6  7  8  9  10  11  12  13  14  15  16  26  30  31  32  33  35 0
 6-311+G(2d,p)
 ****
 37  38 0
 6-311+G(2d,p)
 ****
 1  2  3  4  5  17  18  19  20  21  22  23  24  25 0
 3-21G
 ****
 27  28  29  34  36  39  40  41  42  43  44  45  46 0
 3-21G
 ****


