%nproc=1
%NoSave
%Mem=1900MB
#P OB98/GEN NMR

erre ene a

0 1
  C     1526.211    -899.225     444.734
  O     1526.297    -898.035     445.513
  P     1526.925    -896.725     444.916
  C     1525.554    -895.325     446.675
  O     1526.782    -895.545     446.002
  C     1525.746    -894.155     447.626
  O     1526.367    -892.995     446.905
  C     1524.405    -893.625     448.127
  O     1524.072    -894.195     449.430
  C     1524.612    -892.085     448.200
  O     1525.273    -891.735     449.411
  C     1525.515    -891.865     446.965
  N     1524.839    -891.735     445.654
  C     1523.923    -890.685     445.477
  O     1523.674    -889.845     446.280
  N     1523.312    -890.695     444.229
  C     1523.557    -891.565     443.173
  O     1522.839    -891.685     442.194
  C     1524.712    -892.445     443.376
  C     1525.273    -892.515     444.581
  O     1525.878    -896.275     443.774
  O     1528.326    -896.845     444.395
  H     1524.778    -892.125     450.137
  H     1526.204    -896.555     442.902
  H     1522.565    -890.025     444.095
  H     1525.052    -893.065     442.526
  H     1526.104    -893.195     444.740
  H     1526.127    -890.955     447.103
  H     1523.655    -891.565     448.224
  H     1523.594    -893.825     447.422
  H     1526.360    -894.405     448.439
  H     1525.253    -896.195     447.232
  H     1524.747    -895.105     445.972
  P     1522.600    -894.575     449.763
  C     1523.691    -895.475     451.922
  O     1522.558    -894.755     451.345
  O     1521.979    -895.695     448.961
  O     1521.796    -893.195     449.520
  H     1521.403    -893.155     448.662
  H     1523.663    -895.355     452.994
  H     1524.651    -895.005     451.530
  H     1523.626    -896.505     451.650
  H     1525.756    -900.000     445.315
  H     1527.193    -899.531     444.440
  H     1525.619    -899.039     443.862

 3  4  5  6  7  8  9  10  11  12  13  23  28  29  30  31  32 0
 6-311+G(2d,p)
 ****
 33  34 0
 6-311+G(2d,p)
 ****
 1  2  14  15  16  17  18  19  20  21  22  24  25  26  27 0
 3-21G
 ****
 35  36  37  38  39  40  41  42  43  44  45 0
 3-21G
 ****


