%nproc=1
%NoSave
%Mem=1900MB
#P OB98/GEN NMR

erre ene a

0 1
  C      169.064      27.135    -179.693
  O      169.777      27.577    -178.557
  H      169.755      26.914    -180.510
  H      168.520      26.223    -179.436
  H      168.346      27.897    -180.009
  P      170.679      28.891    -178.735
  C      168.580      30.364    -179.117
  O      169.755      30.150    -178.348
  C      167.665      31.356    -178.403
  O      166.605      31.738    -179.314
  C      167.015      30.815    -177.116
  O      167.353      31.648    -176.003
  C      165.519      30.934    -177.368
  O      164.790      31.376    -176.226
  C      165.433      31.936    -178.514
  N      160.341      31.973    -178.344
  C      161.265      32.570    -177.561
  N      162.603      32.608    -177.721
  C      162.965      31.965    -178.845
  C      162.136      31.331    -179.754
  C      160.763      31.332    -179.460
  N      159.827      30.678    -180.229
  N      162.875      30.772    -180.782
  C      164.130      31.028    -180.474
  N      164.234      31.730    -179.301
  O      170.836      29.017    -180.324
  O      172.004      28.847    -178.052
  H      165.155      32.249    -175.981
  H      171.773      29.168    -180.550
  H      160.880      33.077    -176.681
  H      164.995      30.694    -181.031
  H      165.435      32.973    -178.157
  H      165.131      29.953    -177.668
  H      167.297      29.778    -176.904
  H      168.244      32.261    -178.183
  H      168.046      29.416    -179.243
  H      158.882      30.633    -179.881
  H      160.147      30.108    -180.998
  H      168.864      30.739    -180.106
  P      167.795      30.896    -174.650
  C      170.333      30.555    -175.118
  O      169.338      31.256    -174.385
  O      167.847      29.359    -175.094
  O      166.869      31.118    -173.503
  H      167.687      28.783    -174.323
  H      171.302      30.906    -174.830
  H      170.189      30.723    -176.165
  H      170.257      29.508    -174.911

 6  7  8  9  10  11  12  13  14  15  25  28  32  33  34  35 0
 6-311+G(2d,p)
 ****
 36  39  40 0
 6-311+G(2d,p)
 ****
 1  2  3  4  5  16  17  18  19  20  21  22  23  24 0
 3-21G
 ****
 26  27  29  30  31  37  38  41  42  43  44  45  46  47  48 0
 3-21G
 ****


