%nproc=1
%NoSave
%Mem=1900MB
#P OB98/GEN NMR

erre ene a

0 1
  C      -50.480     180.887    -192.936
  O      -50.930     180.437    -194.199
  H      -50.244     181.952    -193.010
  H      -49.577     180.345    -192.639
  H      -51.264     180.749    -192.188
  P      -51.297     178.879    -194.315
  C      -53.407     177.802    -195.333
  O      -52.419     178.818    -195.464
  C      -54.517     177.998    -196.367
  O      -55.378     179.076    -195.918
  C      -53.995     178.369    -197.758
  O      -54.796     177.723    -198.747
  C      -54.207     179.870    -197.831
  O      -54.338     180.338    -199.170
  C      -55.461     180.049    -196.974
  N      -57.661     184.619    -197.517
  C      -57.871     183.438    -198.134
  N      -57.247     182.259    -197.915
  C      -56.357     182.372    -196.913
  C      -56.034     183.510    -196.195
  C      -56.729     184.684    -196.535
  N      -56.505     185.898    -195.931
  N      -55.039     183.234    -195.277
  C      -54.776     181.949    -195.429
  N      -55.537     181.390    -196.419
  O      -51.655     178.201    -193.036
  O      -50.008     178.296    -195.062
  H      -53.501     180.151    -199.644
  H      -49.731     178.872    -195.797
  H      -58.632     183.436    -198.910
  H      -54.041     181.387    -194.863
  H      -56.385     179.876    -197.539
  H      -53.352     180.387    -197.374
  H      -52.948     178.100    -197.897
  H      -55.131     177.091    -196.399
  H      -53.836     177.822    -194.324
  H      -57.059     186.688    -196.227
  H      -55.826     185.960    -195.184
  H      -52.916     176.834    -195.482
  P      -54.244     176.376    -199.417
  C      -55.195     174.599    -201.030
  O      -55.229     175.960    -200.616
  O      -53.880     175.279    -198.475
  O      -52.948     176.894    -200.211
  H      -52.248     176.213    -200.153
  H      -55.891     174.452    -201.829
  H      -55.459     173.969    -200.206
  H      -54.209     174.353    -201.366

 6  7  8  9  10  11  12  13  14  15  25  28  32  33  34  35 0
 6-311+G(2d,p)
 ****
 36  39  40 0
 6-311+G(2d,p)
 ****
 1  2  3  4  5  16  17  18  19  20  21  22  23  24 0
 3-21G
 ****
 26  27  29  30  31  37  38  41  42  43  44  45  46  47 0
 3-21G
 ****
 48 0
 3-21G
 ****


