%nproc=1
%NoSave
%Mem=1900MB
#P OB98/GEN NMR

erre ene a

0 1
  C     -214.366     -26.394     184.682
  O     -215.196     -25.610     183.849
  H     -214.670     -26.241     185.722
  H     -213.322     -26.082     184.576
  H     -214.466     -27.457     184.444
  P     -215.063     -25.768     182.259
  C     -213.074     -24.120     182.139
  O     -213.537     -25.443     181.883
  C     -211.548     -24.085     182.100
  O     -211.005     -24.999     183.082
  C     -210.954     -24.516     180.762
  O     -211.072     -23.487     179.794
  C     -209.527     -24.843     181.173
  O     -208.733     -23.653     181.271
  C     -209.744     -25.480     182.566
  N     -209.713     -26.945     182.531
  C     -209.986     -27.603     183.729
  O     -210.209     -27.013     184.788
  N     -209.964     -28.972     183.673
  C     -209.592     -29.725     182.596
  O     -209.497     -30.950     182.628
  C     -209.290     -28.980     181.366
  C     -209.364     -27.645     181.389
  O     -216.083     -25.040     181.449
  O     -215.157     -27.352     182.030
  H     -209.142     -23.103     181.970
  H     -216.039     -27.576     181.673
  H     -210.146     -29.468     184.531
  H     -209.007     -29.543     180.488
  H     -209.142     -27.079     180.493
  H     -208.968     -25.140     183.260
  H     -209.034     -25.502     180.460
  H     -211.443     -25.434     180.414
  H     -211.217     -23.069     182.365
  H     -213.426     -23.812     183.132
  H     -213.499     -23.442     181.387
  P     -211.588     -23.835     178.322
  C     -209.205     -24.075     177.379
  O     -210.457     -24.720     177.605
  O     -212.079     -22.670     177.525
  O     -212.768     -24.890     178.566
  H     -213.604     -24.532     178.214
  H     -208.534     -24.757     176.899
  H     -208.789     -23.765     178.315
  H     -209.352     -23.219     176.753

 6  7  8  9  10  11  12  13  14  15  16  26  31  32  33  34  35 0
 6-311+G(2d,p)
 ****
 36  37 0
 6-311+G(2d,p)
 ****
 1  2  3  4  5  17  18  19  20  21  22  23  24  25 0
 3-21G
 ****
 27  28  29  30  38  39  40  41  42  43  44  45 0
 3-21G
 ****


