%nproc=1
%NoSave
%Mem=1900MB
#P OB98/GEN NMR

erre ene a

0 1
  C     -897.460    -899.180    -754.718
  O     -896.630    -898.110    -755.170
  H     -897.380    -900.000    -755.414
  H     -898.500    -898.840    -754.659
  H     -897.130    -899.530    -753.736
  P     -896.620    -896.780    -754.291
  C     -894.130    -896.540    -754.910
  O     -895.410    -895.910    -754.903
  C     -893.460    -896.340    -756.274
  O     -894.110    -897.150    -757.271
  C     -893.500    -894.870    -756.768
  O     -892.270    -894.550    -757.406
  C     -894.630    -894.870    -757.780
  O     -894.490    -893.830    -758.743
  C     -894.520    -896.300    -758.346
  N     -897.630    -895.990    -762.384
  C     -896.380    -895.540    -762.176
  N     -895.630    -895.690    -761.074
  C     -896.260    -896.410    -760.138
  C     -897.550    -896.940    -760.214
  C     -898.220    -896.710    -761.406
  N     -899.530    -897.120    -761.643
  N     -897.860    -897.600    -759.040
  C     -896.780    -897.480    -758.277
  N     -895.790    -896.760    -758.889
  O     -896.590    -896.980    -752.812
  O     -897.900    -896.020    -754.853
  H     -893.670    -893.990    -759.246
  H     -897.960    -896.050    -755.817
  H     -895.910    -894.980    -762.998
  H     -896.650    -897.890    -757.266
  H     -893.780    -896.400    -759.148
  H     -895.600    -894.740    -757.267
  H     -893.700    -894.150    -755.944
  H     -892.410    -896.690    -756.197
  H     -894.240    -897.600    -754.721
  H     -899.960    -896.920    -762.517
  H     -900.000    -897.680    -760.911
  H     -893.530    -896.100    -754.116
  P     -891.170    -893.720    -756.583
  C     -889.610    -894.570    -758.493
  O     -889.830    -893.600    -757.476
  O     -890.940    -894.160    -755.173
  O     -891.760    -892.230    -756.639
  H     -891.570    -891.790    -755.765
  H     -888.688    -894.359    -758.994
  H     -890.415    -894.537    -759.198
  H     -889.561    -895.544    -758.052

 6  7  8  9  10  11  12  13  14  15  25  28  32  33  34  35 0
 6-311+G(2d,p)
 ****
 36  39  40 0
 6-311+G(2d,p)
 ****
 1  2  3  4  5  16  17  18  19  20  21  22  23  24 0
 3-21G
 ****
 26  27  29  30  31  37  38  41  42  43  44  45  46  47 0
 3-21G
 ****
 48 0
 3-21G
 ****


