%nproc=1
%NoSave
%Mem=1900MB
#P OB98/GEN NMR

erre ene a

0 1
  C       73.352     -78.614     159.368
  O       72.050     -79.148     159.239
  H       73.637     -78.630     160.424
  H       73.376     -77.579     159.014
  H       74.066     -79.216     158.799
  P       71.410     -79.112     157.766
  C       69.555     -77.612     158.824
  O       70.505     -77.784     157.784
  C       68.318     -76.903     158.280
  O       68.658     -75.587     157.795
  C       67.662     -77.614     157.102
  O       66.865     -78.719     157.497
  C       66.821     -76.484     156.536
  O       65.660     -76.285     157.362
  C       67.800     -75.293     156.659
  N       68.602     -75.080     155.454
  C       67.986     -74.387     154.404
  O       66.825     -73.994     154.510
  N       68.691     -74.181     153.243
  C       69.908     -74.619     153.138
  N       70.554     -74.400     151.961
  C       70.600     -75.339     154.223
  C       69.897     -75.533     155.336
  O       70.315     -80.279     157.803
  O       72.372     -79.205     156.630
  H       65.123     -77.095     157.294
  H       69.774     -80.256     156.976
  H       71.610     -75.695     154.085
  H       70.340     -76.057     156.176
  H       67.262     -74.366     156.889
  H       66.467     -76.679     155.522
  H       68.400     -77.913     156.349
  H       67.611     -76.773     159.111
  H       70.033     -73.960     151.214
  H       70.016     -77.014     159.617
  H       71.426     -74.857     151.725
  H       69.265     -78.585     159.233
  P       67.057     -80.098     156.697
  C       64.677     -79.853     155.686
  O       66.062     -80.055     155.440
  O       66.376     -81.173     157.666
  O       68.477     -80.451     156.377
  H       66.880     -82.010     157.674
  H       64.147     -79.849     154.757
  H       64.536     -78.915     156.182
  H       64.306     -80.643     156.305

 6  7  8  9  10  11  12  13  14  15  16  26  30  31  32  33  35 0
 6-311+G(2d,p)
 ****
 37  38 0
 6-311+G(2d,p)
 ****
 1  2  3  4  5  17  18  19  20  21  22  23  24  25 0
 3-21G
 ****
 27  28  29  34  36  39  40  41  42  43  44  45  46 0
 3-21G
 ****


