%nproc=1
%NoSave
%Mem=1900MB
#P OB98/GEN NMR

erre ene a

0 1
  C     -254.240     244.886    -309.837
  O     -253.918     243.977    -310.870
  H     -253.501     244.823    -309.036
  H     -254.232     245.900    -310.244
  H     -255.237     244.672    -309.442
  P     -253.837     242.426    -310.469
  C     -255.577     241.700    -312.250
  O     -255.247     241.765    -310.868
  C     -256.501     240.512    -312.508
  O     -255.779     239.295    -312.191
  C     -257.803     240.523    -311.688
  O     -258.937     240.491    -312.558
  C     -257.764     239.221    -310.901
  O     -259.031     238.570    -310.827
  C     -256.744     238.380    -311.657
  N     -257.349     233.866    -309.369
  C     -257.947     234.407    -310.455
  N     -257.667     235.568    -311.078
  C     -256.630     236.185    -310.485
  C     -255.908     235.751    -309.389
  C     -256.316     234.537    -308.810
  N     -255.743     234.016    -307.670
  N     -254.918     236.660    -309.059
  C     -255.072     237.647    -309.918
  N     -256.106     237.415    -310.787
  O     -253.879     242.458    -308.868
  O     -252.636     241.704    -310.976
  H     -258.917     237.799    -310.239
  H     -253.173     241.888    -308.510
  H     -258.767     233.829    -310.874
  H     -254.500     238.567    -309.928
  H     -257.196     237.837    -312.497
  H     -257.425     239.432    -309.881
  H     -257.873     241.385    -311.015
  H     -256.730     240.482    -313.580
  H     -254.662     241.572    -312.838
  H     -256.175     233.205    -307.257
  H     -255.047     234.564    -307.185
  H     -256.057     242.638    -312.545
  P     -260.339     240.966    -311.931
  C     -260.206     243.338    -313.000
  O     -260.291     242.566    -311.807
  O     -260.235     240.477    -310.410
  O     -261.536     240.401    -312.621
  H     -261.129     240.321    -310.047
  H     -260.183     244.378    -312.751
  H     -261.058     243.137    -313.616
  H     -259.313     243.078    -313.530

 6  7  8  9  10  11  12  13  14  15  25  28  32  33  34  35 0
 6-311+G(2d,p)
 ****
 36  39  40 0
 6-311+G(2d,p)
 ****
 1  2  3  4  5  16  17  18  19  20  21  22  23  24 0
 3-21G
 ****
 26  27  29  30  31  37  38  41  42  43  44  45  46  47  48 0
 3-21G
 ****


