%nproc=1
%NoSave
%Mem=1900MB
#P OB98/GEN NMR

erre ene a

0 1
  C      -81.380      15.505      89.718
  O      -80.620      15.665      90.898
  H      -81.615      16.494      89.315
  H      -82.316      14.985      89.941
  H      -80.811      14.945      88.970
  P      -80.132      14.322      91.628
  C      -82.163      14.332      93.254
  O      -81.450      13.637      92.237
  C      -83.439      13.570      93.602
  O      -84.275      13.470      92.427
  C      -83.205      12.136      94.063
  O      -82.799      12.074      95.420
  C      -84.575      11.518      93.811
  O      -85.478      11.779      94.894
  C      -85.045      12.254      92.549
  N      -86.349       7.847      90.343
  C      -86.712       8.413      91.515
  N      -86.332       9.605      92.024
  C      -85.496      10.231      91.179
  C      -85.032       9.777      89.957
  C      -85.498       8.521      89.536
  N      -85.100       7.929      88.359
  N      -84.150      10.685      89.404
  C      -84.089      11.675      90.273
  N      -84.889      11.445      91.357
  O      -79.363      14.877      92.920
  O      -79.269      13.425      90.804
  H      -85.108      11.332      95.680
  H      -78.408      14.939      92.729
  H      -87.394       7.829      92.129
  H      -83.480      12.564      90.168
  H      -86.101      12.544      92.609
  H      -84.507      10.435      93.699
  H      -82.470      11.643      93.414
  H      -83.988      14.140      94.364
  H      -82.428      15.332      92.891
  H      -81.519      14.430      94.134
  H      -85.457       7.014      88.132
  H      -84.384       8.375      87.802
  P      -81.634      11.050      95.822
  C      -83.271       9.035      95.968
  O      -82.101       9.581      95.377
  O      -81.718      11.009      97.419
  O      -80.274      11.434      95.344
  H      -81.028      11.576      97.812
  H      -83.448       8.057      95.571
  H      -84.108       9.666      95.751
  H      -83.138       8.971      97.028

 6  7  8  9  10  11  12  13  14  15  25  28  32  33  34  35 0
 6-311+G(2d,p)
 ****
 36  37  40 0
 6-311+G(2d,p)
 ****
 1  2  3  4  5  16  17  18  19  20  21  22  23  24 0
 3-21G
 ****
 26  27  29  30  31  38  39 41  42  43  44  45  46  47  48 0
 3-21G
 ****


