%nproc=1
%NoSave
%Mem=1900MB
#P OB98/GEN NMR

erre ene a

0 1
  C      433.848     273.491     161.340
  O      433.817     272.637     160.190
  P      432.786     271.405     160.202
  C      430.946     272.483     158.705
  O      431.921     271.453     158.852
  C      430.783     272.846     157.220
  O      431.909     273.637     156.761
  C      430.738     271.644     156.306
  O      429.452     271.032     156.351
  C      431.085     272.246     154.948
  O      429.910     272.690     154.251
  C      431.982     273.453     155.336
  N      433.365     273.272     154.903
  C      433.583     273.364     153.508
  O      432.637     273.555     152.744
  N      434.866     273.214     153.054
  C      435.841     272.960     153.881
  N      437.090     272.811     153.354
  C      435.638     272.828     155.346
  C      434.396     273.003     155.778
  O      431.731     271.819     161.332
  O      433.426     270.086     160.503
  H      429.399     271.880     154.033
  H      431.394     271.030     161.789
  H      436.473     272.611     155.986
  H      434.146     272.914     156.835
  H      431.603     274.383     154.880
  H      431.587     271.531     154.294
  H      431.513     270.915     156.597
  H      429.862     273.456     157.115
  H      437.186     272.905     152.350
  H      431.225     273.361     159.274
  H      437.903     272.610     153.905
  H      429.998     272.133     159.117
  P      429.229     269.696     155.502
  C      428.516     268.186     157.454
  O      428.086     268.885     156.316
  O      430.551     268.847     155.887
  O      429.049     269.829     154.039
  H      430.574     268.027     155.338
  H      427.619     267.866     158.015
  H      429.103     268.833     158.111
  H      429.087     267.299     157.178
  H      434.576     274.262     161.192
  H      434.108     272.916     162.204
  H      432.884     273.933     161.482

 3  4  5  6  7  8  9  10  11  12  13  21  23  27  28  29  30  32 0
 6-311+G(2d,p)
 ****
 34  35 0
 6-311+G(2d,p)
 ****
 1  2  14  15  16  17  18  19  20  22  24  25  26 0
 3-21G
 ****
 31  33  36  37  38  39  40  41  42  43  44  45  46 0
 3-21G
 ****


