%nproc=1
%NoSave
%Mem=1900MB
#P OB98/GEN NMR

erre ene a

0 1
  C      875.214    -898.660    -755.230
  O      876.209    -899.030    -756.164
  H      874.291    -899.220    -755.423
  H      875.566    -898.900    -754.224
  H      875.016    -897.590    -755.285
  P      875.861    -898.770    -757.708
  C      876.902    -896.400    -757.591
  O      875.755    -897.170    -757.896
  C      876.611    -894.920    -757.797
  O      876.304    -894.710    -759.211
  C      875.426    -894.380    -756.980
  O      875.797    -893.190    -756.283
  C      874.371    -894.030    -758.014
  O      873.600    -892.900    -757.658
  C      875.210    -893.790    -759.266
  N      872.581    -891.380    -762.906
  C      873.536    -890.940    -762.061
  N      874.264    -891.650    -761.173
  C      873.954    -892.960    -761.255
  C      873.019    -893.560    -762.078
  C      872.294    -892.700    -762.934
  N      871.281    -893.140    -763.752
  N      872.966    -894.930    -761.862
  C      873.832    -895.140    -760.884
  N      874.434    -893.980    -760.478
  O      874.343    -899.270    -757.835
  O      876.749    -899.480    -758.676
  H      874.202    -892.140    -757.586
  H      874.302    -900.000    -758.477
  H      873.734    -889.870    -762.090
  H      874.015    -896.100    -760.410
  H      875.630    -892.780    -759.287
  H      873.714    -894.890    -758.135
  H      875.050    -895.120    -756.256
  H      877.522    -894.350    -757.583
  H      877.735    -896.710    -758.242
  H      870.737    -892.440    -764.240
  H      870.993    -894.100    -763.689
  H      877.192    -896.590    -756.542
  P      876.135    -893.350    -754.714
  C      878.389    -892.110    -754.275
  O      877.748    -893.350    -754.550
  O      875.726    -894.860    -754.406
  O      875.414    -892.390    -753.838
  H      875.076    -894.900    -753.687
  H      879.445    -892.265    -754.194
  H      878.015    -891.711    -753.355
  H      878.189    -891.421    -755.069

 6  7  8  9  10  11  12  13  14  15  25  28  32  33  34  35 0
 6-311+G(2d,p)
 ****
 36  39  40 0
 6-311+G(2d,p)
 ****
 1  2  3  4  5  16  17  18  19  20  21  22  23  24 0
 3-21G
 ****
 26  27  29  30  31  37  38  41  42  43  44  45  46  47  48 0
 3-21G
 ****


