%nproc=1
%NoSave
%Mem=1900MB
#P OB98/GEN NMR

erre ene a

0 1
  C      463.492    -223.416     -33.199
  O      464.150    -222.439     -32.421
  H      463.082    -222.935     -34.091
  H      462.673    -223.871     -32.638
  H      464.200    -224.190     -33.515
  P      464.743    -222.869     -30.996
  C      466.517    -224.605     -30.272
  O      466.068    -223.721     -31.289
  C      467.801    -225.325     -30.704
  O      467.483    -226.247     -31.784
  C      468.898    -224.381     -31.220
  O      470.161    -224.988     -30.921
  C      468.634    -224.400     -32.711
  O      469.715    -223.867     -33.436
  C      468.307    -225.882     -32.914
  N      467.642    -226.143     -34.181
  C      468.258    -227.071     -35.023
  O      469.311    -227.615     -34.684
  N      467.686    -227.342     -36.239
  C      466.629    -226.692     -36.611
  N      466.118    -226.997     -37.835
  C      465.980    -225.659     -35.777
  C      466.530    -225.440     -34.585
  O      463.776    -223.517     -30.060
  O      465.317    -221.504     -30.388
  H      470.559    -224.293     -33.170
  H      464.718    -221.176     -29.693
  H      465.112    -225.130     -36.143
  H      466.127    -224.698     -33.902
  H      469.218    -226.494     -32.866
  H      467.762    -223.786     -32.956
  H      468.847    -223.383     -30.778
  H      468.163    -225.933     -29.864
  H      466.602    -227.705     -38.376
  H      465.722    -225.336     -30.096
  H      465.313    -226.542     -38.237
  H      466.698    -224.053     -29.346
  P      471.174    -224.398     -29.827
  C      471.055    -224.548     -27.254
  O      471.070    -225.265     -28.485
  O      471.043    -222.923     -29.610
  O      472.636    -224.748     -30.385
  H      473.262    -224.058     -30.095
  H      470.983    -225.239     -26.440
  H      470.214    -223.887     -27.236
  H      471.957    -223.980     -27.161

 6  7  8  9  10  11  12  13  14  15  16  26  30  31  32  33  35 0
 6-311+G(2d,p)
 ****
 37  38 0
 6-311+G(2d,p)
 ****
 1  2  3  4  5  17  18  19  20  21  22  23  24  25 0
 3-21G
 ****
 27  28  29  34  36  39  40  41  42  43  44  45  46 0
 3-21G
 ****


