%nproc=1
%NoSave
%Mem=1900MB
#P OB98/GEN NMR

erre ene a

0 1
  C       10.999      71.226     103.732
  O        9.855      71.370     104.552
  H       11.609      70.407     104.123
  H       11.597      72.143     103.743
  H       10.708      70.986     102.706
  P        8.799      72.517     104.185
  C        9.615      73.824     106.257
  O        9.357      73.860     104.860
  C       10.903      74.575     106.573
  O       12.028      73.938     105.935
  C       10.904      76.030     106.099
  O       10.208      76.853     107.021
  C       12.398      76.304     106.061
  O       12.888      76.517     107.399
  C       12.943      74.979     105.499
  N       15.318      76.802     101.406
  C       15.455      77.143     102.738
  N       16.321      78.144     103.010
  N       14.789      76.571     103.708
  C       13.914      75.637     103.275
  C       13.675      75.224     101.982
  C       14.453      75.823     100.924
  O       14.376      75.537      99.732
  N       12.661      74.301     101.930
  C       12.315      74.129     103.190
  N       13.035      74.928     104.048
  O        7.365      72.228     104.510
  O        9.023      72.768     102.620
  H       13.860      76.532     107.342
  H        8.421      72.219     102.086
  H       15.844      77.292     100.700
  H       11.553      73.441     103.536
  H       13.935      74.737     105.893
  H       12.659      77.186     105.473
  H       16.628      78.792     102.297
  H       10.506      76.127     105.084
  H       16.399      78.444     103.974
  H       11.071      74.518     107.656
  H        9.703      72.772     106.550
  H        8.784      74.274     106.810
  P        8.913      77.689     106.571
  C       10.241      79.805     107.222
  O        9.463      79.155     106.228
  O        7.778      77.659     107.538
  O        8.544      77.110     105.129
  H        7.937      76.331     105.154
  H       10.542      80.768     106.866
  H       11.109      79.217     107.436
  H        9.659      79.919     108.112

 6  7  8  9  10  11  12  13  14  15  26  29  33  34 0
 6-311+G(2d,p)
 ****
 36  38  39  40  41 0
 6-311+G(2d,p)
 ****
 1  2  3  4  5  16  17  18  19  20  21  22  23  24  25 0
 3-21G
 ****
 27  28  30  31  32  35  37  42  43  44  45  46  47 0
 3-21G
 ****
 48  49 0
 3-21G
 ****


