%nproc=1
%NoSave
%Mem=1900MB
#P OB98/GEN NMR

erre ene a

0 1
  C       43.052     246.734    -246.015
  O       43.282     245.340    -246.046
  P       44.416     244.683    -245.116
  C       42.987     242.982    -243.800
  O       43.925     243.172    -244.858
  C       42.386     241.577    -243.857
  O       41.469     241.465    -244.961
  C       43.410     240.468    -244.050
  O       44.090     240.197    -242.839
  C       42.525     239.334    -244.545
  O       41.886     238.654    -243.456
  C       41.481     240.088    -245.404
  N       41.756     239.984    -246.830
  C       41.438     238.755    -247.426
  O       40.992     237.832    -246.747
  N       41.682     238.589    -248.767
  C       42.221     239.555    -249.446
  N       42.455     239.325    -250.768
  C       42.600     240.851    -248.850
  C       42.340     240.996    -247.556
  O       44.769     245.460    -243.894
  O       45.643     244.488    -246.127
  H       41.336     239.320    -243.001
  H       46.085     245.351    -246.329
  H       43.057     241.625    -249.457
  H       42.590     241.912    -247.033
  H       40.476     239.692    -245.222
  H       43.089     238.582    -245.103
  H       44.117     240.750    -244.837
  H       41.822     241.411    -242.928
  H       42.207     238.407    -251.130
  H       42.191     243.722    -243.912
  H       42.897     239.991    -251.379
  H       43.486     243.151    -242.839
  P       45.390     239.267    -242.841
  C       46.027     240.497    -240.680
  O       45.988     239.249    -241.356
  O       46.377     239.546    -243.928
  O       44.783     237.785    -243.002
  H       45.318     237.296    -243.660
  H       46.131     240.309    -239.607
  H       45.116     241.070    -240.863
  H       46.895     241.067    -241.029
  H       42.265     246.981    -246.697
  H       43.945     247.249    -246.300
  H       42.771     247.027    -245.025

 3  4  5  6  7  8  9  10  11  12  13  23  27  28  29  30  32 0
 6-311+G(2d,p)
 ****
 34  35 0
 6-311+G(2d,p)
 ****
 1  2  14  15  16  17  18  19  20  21  22  24  25  26 0
 3-21G
 ****
 31  33  36  37  38  39  40  41  42  43  44  45  46 0
 3-21G
 ****


