%nproc=1
%NoSave
%Mem=1900MB
#P OB98/GEN NMR

erre ene a

0 1
  C        0.904     -29.475      18.634
  O        0.372     -28.804      19.758
  H        0.278     -29.261      17.765
  H        0.907     -30.554      18.809
  H        1.922     -29.131      18.430
  P        1.207     -28.891      21.123
  C        0.299     -26.793      22.368
  O        0.295     -28.207      22.254
  C       -0.788     -26.198      21.473
  O       -2.068     -26.771      21.855
  C       -0.912     -24.675      21.600
  O       -1.227     -24.124      20.318
  C       -2.092     -24.499      22.539
  O       -2.738     -23.240      22.417
  C       -2.973     -25.681      22.124
  N       -3.937     -26.052      23.158
  C       -5.022     -25.205      23.355
  O       -5.267     -24.209      22.675
  N       -5.852     -25.539      24.394
  C       -5.694     -26.593      25.245
  O       -6.460     -26.828      26.172
  C       -4.525     -27.447      24.991
  C       -3.713     -27.141      23.977
  O        2.380     -27.824      20.907
  O        1.722     -30.244      21.480
  H        3.160     -28.250      20.504
  H       -3.563     -23.271      22.944
  H       -6.645     -24.936      24.550
  H       -4.362     -28.289      25.651
  H       -2.834     -27.743      23.772
  H       -3.501     -25.455      21.190
  H       -1.761     -24.609      23.579
  H       -0.008     -24.206      21.990
  H       -0.598     -26.495      20.435
  H        1.275     -26.410      22.053
  H        0.126     -26.514      23.412
  P       -0.104     -23.224      19.605
  C       -0.936     -23.396      17.132
  O       -0.803     -22.603      18.299
  O        0.883     -24.342      19.035
  O        0.521     -22.234      20.530
  H        0.425     -25.137      18.715
  H       -1.421     -22.826      16.367
  H       -1.521     -24.264      17.355
  H        0.033     -23.697      16.793

 6  7  8  9  10  11  12  13  14  15  16  27  31  32  33  34  35 0
 6-311+G(2d,p)
 ****
 36  37 0
 6-311+G(2d,p)
 ****
 1  2  3  4  5  17  18  19  20  21  22  23  24  25 0
 3-21G
 ****
 26  28  29  30  38  39  40  41  42  43  44  45 0
 3-21G
 ****


