%nproc=1
%NoSave
%Mem=1900MB
#P OB98/GEN NMR

erre ene a

0 1
  C     -311.304    -249.456     539.417
  O     -310.974    -250.838     539.516
  P     -309.555    -251.466     539.150
  C     -308.916    -252.223     541.588
  O     -309.188    -252.583     540.233
  C     -308.907    -253.460     542.498
  O     -310.234    -254.066     542.477
  C     -307.901    -254.530     542.024
  O     -307.162    -255.132     543.081
  C     -308.759    -255.444     541.174
  O     -308.206    -256.732     540.969
  C     -310.105    -255.407     541.909
  N     -312.984    -259.017     539.731
  C     -311.791    -259.142     540.419
  N     -311.290    -260.394     540.535
  N     -311.147    -258.133     540.941
  C     -311.721    -256.932     540.680
  C     -312.875    -256.679     539.996
  C     -313.621    -257.805     539.471
  O     -314.684    -257.747     538.867
  N     -313.147    -255.328     539.948
  C     -312.133    -254.769     540.583
  N     -311.243    -255.712     541.051
  O     -308.479    -250.498     538.788
  O     -309.862    -252.350     537.827
  H     -308.272    -257.224     541.798
  H     -309.047    -252.330     537.284
  H     -313.459    -259.834     539.370
  H     -312.012    -253.704     540.741
  H     -310.145    -256.117     542.729
  H     -308.868    -254.985     540.178
  H     -311.686    -261.194     540.057
  H     -307.122    -254.081     541.397
  H     -310.327    -260.449     540.848
  H     -308.687    -253.143     543.529
  H     -309.736    -251.547     541.889
  H     -307.981    -251.659     541.661
  P     -305.606    -255.007     543.406
  C     -305.988    -254.524     545.906
  O     -305.369    -255.371     544.948
  O     -305.308    -253.438     543.374
  O     -304.704    -255.727     542.453
  H     -304.639    -253.240     542.664
  H     -305.544    -254.716     546.878
  H     -307.055    -254.723     545.949
  H     -305.815    -253.473     545.641
  H     -312.318    -249.309     539.724
  H     -311.187    -249.133     538.404
  H     -310.654    -248.888     540.049

 3  4  5  6  7  8  9  10  11  12  23  26  30  31 0
 6-311+G(2d,p)
 ****
 33  35  36  37  38 0
 6-311+G(2d,p)
 ****
 1  2  13  14  15  16  17  18  19  20  21  22  24  25 0
 3-21G
 ****
 27  28  29  32  34  39  40  41  42  43  44  45  46  47  48  49 0
 3-21G
 ****


