%nproc=1
%NoSave
%Mem=1900MB
#P OB98/GEN NMR

erre ene a

0 1
  C      -74.876    -180.485    -195.233
  O      -73.760    -181.341    -195.373
  H      -75.623    -180.755    -195.983
  H      -74.577    -179.446    -195.392
  H      -75.316    -180.600    -194.238
  P      -72.515    -181.075    -194.398
  C      -73.483    -182.294    -192.319
  O      -73.097    -181.059    -192.904
  C      -72.594    -182.592    -191.117
  O      -72.604    -181.468    -190.209
  C      -73.048    -183.786    -190.288
  O      -72.688    -185.021    -190.881
  C      -72.318    -183.525    -188.981
  O      -70.968    -184.010    -189.025
  C      -72.350    -181.982    -188.886
  N      -73.333    -181.512    -187.917
  C      -72.831    -180.751    -186.865
  O      -71.636    -180.479    -186.741
  N      -73.744    -180.338    -185.935
  C      -75.074    -180.639    -185.931
  O      -75.827    -180.299    -185.026
  C      -75.553    -181.435    -187.074
  C      -74.674    -181.838    -187.996
  O      -72.153    -179.542    -194.684
  O      -71.345    -181.978    -194.606
  H      -71.365    -179.487    -195.256
  H      -70.536    -183.688    -188.210
  H      -73.397    -179.796    -185.160
  H      -76.607    -181.687    -187.106
  H      -75.000    -182.443    -188.835
  H      -71.367    -181.599    -188.582
  H      -72.806    -184.022    -188.143
  H      -74.129    -183.733    -190.106
  H      -71.566    -182.738    -191.472
  H      -73.370    -183.099    -193.055
  H      -74.537    -182.235    -192.023
  P      -73.614    -186.301    -190.606
  C      -75.562    -185.131    -191.926
  O      -75.133    -185.808    -190.760
  O      -73.421    -186.490    -189.031
  O      -73.255    -187.488    -191.434
  H      -73.336    -185.646    -188.554
  H      -76.600    -184.888    -191.836
  H      -75.416    -185.761    -192.778
  H      -74.994    -184.232    -192.046

 6  7  8  9  10  11  12  13  14  15  16  27  31  32  33  34  35 0
 6-311+G(2d,p)
 ****
 36  37 0
 6-311+G(2d,p)
 ****
 1  2  3  4  5  17  18  19  20  21  22  23  24  25 0
 3-21G
 ****
 26  28  29  30  38  39  40  41  42  43  44  45 0
 3-21G
 ****


