%nproc=1
%NoSave
%Mem=1900MB
#P OB98/GEN NMR

erre ene a

0 1
  C      284.813      76.306      54.981
  O      286.198      76.494      55.218
  P      286.689      77.924      55.745
  C      286.928      78.739      53.293
  O      287.534      78.621      54.572
  C      287.972      79.078      52.225
  O      287.320      79.227      50.938
  C      288.733      80.379      52.503
  O      290.081      80.252      52.020
  C      288.032      81.392      51.623
  O      288.879      82.501      51.325
  C      287.673      80.526      50.417
  N      286.328      84.208      47.227
  C      287.588      83.792      47.604
  N      288.626      84.513      47.128
  N      287.811      82.758      48.368
  C      286.677      82.134      48.775
  C      285.373      82.445      48.456
  C      285.139      83.598      47.619
  O      284.048      84.035      47.272
  N      284.495      81.562      49.029
  C      285.259      80.744      49.728
  N      286.584      81.073      49.635
  O      287.801      77.541      56.833
  O      285.616      78.767      56.351
  H      288.316      83.182      50.905
  H      287.447      77.679      57.731
  H      286.204      85.019      46.641
  H      284.899      79.921      50.334
  H      288.531      80.390      49.750
  H      287.137      81.772      52.129
  H      288.518      85.358      46.589
  H      288.751      80.678      53.556
  H      289.559      84.256      47.427
  H      288.667      78.233      52.137
  H      286.182      79.534      53.324
  H      286.423      77.802      53.038
  P      291.240      80.598      53.078
  C      291.316      82.873      51.816
  O      292.037      81.841      52.460
  O      292.258      79.373      52.917
  O      290.762      80.760      54.480
  H      292.769      79.249      53.739
  H      291.460      83.804      52.372
  H      290.246      82.657      51.756
  H      291.709      83.001      50.804
  H      284.643      75.308      54.635
  H      284.480      77.002      54.240
  H      284.271      76.466      55.889

 3  4  5  6  7  8  9  10  11  12  23  26  30  31 0
 6-311+G(2d,p)
 ****
 33  35  36  37  38 0
 6-311+G(2d,p)
 ****
 1  2  13  14  15  16  17  18  19  20  21  22  24  25 0
 3-21G
 ****
 27  28  29  32  34  39  40  41  42  43  44  45  46  47  48  49 0
 3-21G
 ****


