%nproc=1
%NoSave
%Mem=1900MB
#P OB98/GEN NMR

erre ene a

0 1
  C     -180.740     145.336     300.564
  O     -181.287     146.188     299.556
  P     -180.910     145.973     298.011
  C     -179.837     148.274     297.685
  O     -180.885     147.401     297.273
  C     -180.164     149.758     297.475
  O     -179.912     150.157     296.104
  C     -181.608     150.152     297.802
  O     -181.545     151.488     298.309
  C     -182.266     150.125     296.433
  O     -183.487     150.852     296.396
  C     -181.137     150.677     295.555
  N     -181.300     150.316     294.149
  C     -181.240     151.352     293.219
  O     -181.116     152.518     293.594
  N     -181.374     151.049     291.884
  C     -181.640     149.835     291.525
  N     -181.786     149.601     290.192
  C     -181.796     148.721     292.482
  C     -181.603     149.030     293.764
  O     -181.711     144.926     297.309
  O     -179.359     145.556     298.052
  H     -183.644     151.141     295.471
  H     -179.165     144.968     297.295
  H     -182.046     147.728     292.140
  H     -181.693     148.284     294.541
  H     -181.094     151.773     295.626
  H     -182.492     149.087     296.153
  H     -182.089     149.482     298.516
  H     -179.472     150.336     298.102
  H     -181.696     150.397     289.571
  H     -178.933     148.023     297.120
  H     -182.105     148.722     289.814
  H     -179.616     148.090     298.741
  P     -181.061     151.809     299.800
  C     -183.380     152.465     300.657
  O     -182.065     152.907     300.388
  O     -179.613     152.151     299.932
  O     -181.424     150.490     300.642
  H     -180.918     150.494     301.473
  H     -183.900     153.227     301.243
  H     -183.367     151.528     301.225
  H     -183.919     152.312     299.715
  H     -181.107     145.636     301.523
  H     -179.673     145.409     300.552
  H     -181.030     144.324     300.372

 3  4  5  6  7  8  9  10  11  12  13  23  27  28  29  30  32 0
 6-311+G(2d,p)
 ****
 34  35 0
 6-311+G(2d,p)
 ****
 1  2  14  15  16  17  18  19  20  21  22  24  25  26 0
 3-21G
 ****
 31  33  36  37  38  39  40  41  42  43  44  45  46 0
 3-21G
 ****


