%nproc=1
%NoSave
%Mem=1900MB
#P OB98/GEN NMR

erre ene a

0 1
  C     -233.852     228.281     412.812
  O     -234.602     228.642     413.958
  H     -234.148     228.926     411.981
  H     -234.060     227.242     412.546
  H     -232.782     228.412     412.999
  P     -234.154     227.974     415.341
  C     -232.660     230.027     415.998
  O     -232.743     228.631     415.755
  C     -232.410     230.288     417.481
  O     -233.478     229.737     418.283
  C     -231.164     229.617     418.030
  O     -229.973     230.237     417.597
  C     -231.408     229.749     419.529
  O     -230.982     231.028     420.019
  C     -232.945     229.613     419.626
  N     -233.337     228.367     420.256
  C     -233.490     228.425     421.648
  O     -233.317     229.483     422.244
  N     -233.799     227.272     422.321
  C     -233.914     226.155     421.672
  N     -234.191     225.042     422.405
  C     -233.758     226.052     420.208
  C     -233.472     227.184     419.568
  O     -233.749     226.491     414.894
  O     -235.179     228.027     416.423
  H     -231.551     231.229     420.790
  H     -233.156     226.463     414.126
  H     -233.880     225.102     419.709
  H     -233.340     227.199     418.494
  H     -233.372     230.441     420.205
  H     -230.863     228.992     420.096
  H     -231.169     228.546     417.779
  H     -232.381     231.375     417.637
  H     -234.233     225.149     423.412
  H     -233.575     230.531     415.672
  H     -234.226     224.108     422.018
  H     -231.834     230.421     415.398
  P     -228.581     229.450     417.578
  C     -227.637     229.138     415.201
  O     -228.529     228.635     416.192
  O     -228.299     228.619     418.785
  O     -227.511     230.613     417.321
  H     -227.636     231.109     416.491
  H     -227.687     228.520     414.329
  H     -226.638     229.133     415.585
  H     -227.916     230.139     414.945

 6  7  8  9  10  11  12  13  14  15  16  26  30  31  32  33  35 0
 6-311+G(2d,p)
 ****
 37  38 0
 6-311+G(2d,p)
 ****
 1  2  3  4  5  17  18  19  20  21  22  23  24  25 0
 3-21G
 ****
 27  28  29  34  36  39  40  41  42  43  44  45  46 0
 3-21G
 ****


