%nproc=1
%NoSave
%Mem=1900MB
#P OB98/GEN NMR

erre ene a

0 1
  C        5.800    -100.704     101.645
  O        5.074     -99.491     101.554
  P        4.228     -99.036     102.842
  C        2.236    -100.683     102.571
  O        2.688     -99.335     102.502
  C        0.786    -100.808     102.102
  O        0.465    -102.211     101.940
  C       -0.236    -100.196     103.061
  O       -1.273     -99.605     102.276
  C       -0.799    -101.399     103.793
  O       -2.104    -101.141     104.308
  C       -0.734    -102.474     102.698
  N       -0.731    -103.825     103.250
  C       -1.957    -104.327     103.697
  O       -2.958    -103.609     103.686
  N       -2.009    -105.607     104.190
  C       -0.913    -106.286     104.327
  N       -1.016    -107.550     104.818
  C        0.418    -105.747     103.984
  C        0.432    -104.533     103.437
  O        4.316     -97.440     102.782
  O        4.726     -99.584     104.139
  H       -2.116    -100.222     104.658
  H        4.309     -97.058     103.679
  H        1.304    -106.341     104.152
  H        1.359    -104.067     103.131
  H       -1.587    -102.380     102.013
  H       -0.143    -101.665     104.631
  H        0.201     -99.443     103.723
  H        0.705    -100.341     101.113
  H       -1.937    -107.891     105.061
  H        2.290    -101.022     103.609
  H       -0.217    -108.152     104.960
  H        2.895    -101.317     101.970
  P       -1.667     -98.082     102.589
  C       -4.085     -98.819     103.036
  O       -3.236     -97.987     102.272
  O       -1.038     -97.323     101.322
  O       -1.196     -97.477     103.869
  H       -1.157     -96.361     101.424
  H       -5.124     -98.556     102.817
  H       -3.903     -98.676     104.104
  H       -3.924     -99.866     102.764
  H        6.313    -100.883     100.723
  H        5.124    -101.510     101.839
  H        6.511    -100.635     102.441

 3  4  5  6  7  8  9  10  11  12  13  21  23  27  28  29  30  32 0
 6-311+G(2d,p)
 ****
 34  35 0
 6-311+G(2d,p)
 ****
 1  2  14  15  16  17  18  19  20  22  24  25  26 0
 3-21G
 ****
 31  33  36  37  38  39  40  41  42  43  44  45  46 0
 3-21G
 ****


