%nproc=1
%NoSave
%Mem=1900MB
#P OB98/GEN NMR

erre ene a

0 1
  C     -224.879    -304.524    -435.978
  O     -225.932    -303.576    -436.037
  P     -227.265    -303.896    -435.204
  C     -226.820    -302.412    -433.113
  O     -227.555    -302.594    -434.319
  C     -227.283    -301.147    -432.390
  O     -226.965    -299.982    -433.182
  C     -228.778    -301.089    -432.142
  O     -229.132    -301.908    -431.048
  C     -228.982    -299.597    -431.891
  O     -228.756    -299.274    -430.512
  C     -227.907    -298.951    -432.798
  N     -228.472    -298.287    -433.961
  C     -229.078    -297.050    -433.721
  O     -229.121    -296.590    -432.570
  N     -229.647    -296.375    -434.772
  C     -229.628    -296.903    -435.957
  N     -230.204    -296.197    -436.967
  C     -229.021    -298.220    -436.252
  C     -228.473    -298.854    -435.214
  O     -226.771    -304.970    -434.123
  O     -228.408    -304.399    -436.018
  H     -229.399    -299.811    -430.002
  H     -227.504    -305.546    -433.837
  H     -229.028    -298.614    -437.257
  H     -228.008    -299.826    -435.340
  H     -227.330    -298.209    -432.231
  H     -229.996    -299.276    -432.130
  H     -229.332    -301.389    -433.039
  H     -226.735    -301.074    -431.437
  H     -230.617    -295.302    -436.734
  H     -225.751    -302.312    -433.345
  H     -230.220    -296.506    -437.931
  H     -226.957    -303.293    -432.473
  P     -230.448    -302.814    -431.200
  C     -228.858    -304.807    -430.918
  O     -230.073    -304.211    -430.505
  O     -230.425    -303.197    -432.751
  O     -231.745    -302.198    -430.784
  H     -231.237    -303.674    -432.993
  H     -228.640    -305.658    -430.264
  H     -228.032    -304.098    -430.850
  H     -228.958    -305.169    -431.947
  H     -224.059    -304.184    -436.576
  H     -225.225    -305.466    -436.350
  H     -224.558    -304.638    -434.964

 3  4  5  6  7  8  9  10  11  12  13  21  23  27  28  29  30  32 0
 6-311+G(2d,p)
 ****
 34  35 0
 6-311+G(2d,p)
 ****
 1  2  14  15  16  17  18  19  20  22  24  25  26 0
 3-21G
 ****
 31  33  36  37  38  39  40  41  42  43  44  45  46 0
 3-21G
 ****


