%nproc=1
%NoSave
%Mem=1900MB
#P OB98/GEN NMR

erre ene a

0 1
  C      -87.545      -5.959     -56.036
  O      -87.164      -7.193     -55.404
  P      -85.889      -8.057     -55.848
  C      -83.763      -8.782     -54.559
  O      -85.178      -8.618     -54.522
  C      -83.183      -8.839     -53.135
  O      -83.100      -7.499     -52.581
  C      -84.021      -9.613     -52.120
  O      -83.934     -11.013     -52.313
  C      -83.412      -9.118     -50.811
  O      -82.236      -9.857     -50.459
  C      -83.036      -7.660     -51.139
  N      -83.884      -6.689     -50.467
  C      -83.305      -5.987     -49.402
  O      -82.170      -6.262     -49.022
  N      -84.047      -4.998     -48.791
  C      -85.285      -4.810     -49.137
  N      -85.959      -3.811     -48.510
  C      -85.970      -5.617     -50.168
  C      -85.214      -6.525     -50.789
  O      -84.953      -7.337     -56.769
  O      -86.485      -9.371     -56.545
  H      -85.842      -9.721     -57.186
  H      -82.486     -10.806     -50.445
  H      -87.007      -5.449     -50.401
  H      -85.633      -7.150     -51.565
  H      -81.988      -7.473     -50.876
  H      -84.116      -9.215     -49.972
  H      -85.062      -9.286     -52.189
  H      -82.169      -9.254     -53.196
  H      -85.454      -3.265     -47.817
  H      -83.327      -7.928     -55.086
  H      -86.915      -3.564     -48.722
  H      -83.522      -9.700     -55.112
  P      -85.235     -11.744     -52.897
  C      -85.324     -14.042     -54.107
  O      -84.929     -13.314     -52.957
  O      -85.262     -11.299     -54.438
  O      -86.512     -11.383     -52.210
  H      -86.180     -11.132     -54.721
  H      -84.662     -14.905     -54.219
  H      -85.278     -13.429     -55.012
  H      -86.350     -14.403     -53.965
  H      -88.425      -5.574     -55.564
  H      -87.744      -6.136     -57.072
  H      -86.750      -5.249     -55.941

 3  4  5  6  7  8  9  10  11  12  13  24  27  28  29  30  32 0
 6-311+G(2d,p)
 ****
 34  35 0
 6-311+G(2d,p)
 ****
 1  2  14  15  16  17  18  19  20  21  22  23  25  26 0
 3-21G
 ****
 31  33  36  37  38  39  40  41  42  43  44  45  46 0
 3-21G
 ****


