%nproc=1
%NoSave
%Mem=1900MB
#P OB98/GEN NMR

erre ene a

0 1
  C       94.160      99.852      21.515
  O       94.793      98.856      22.340
  P       95.850      99.327      23.459
  C       98.367     100.021      23.609
  O       97.294      99.570      22.793
  C       99.689     100.050      22.823
  O       99.970      98.726      22.253
  C       99.721     101.053      21.660
  O      101.066     101.531      21.543
  C       99.376     100.176      20.463
  O       99.756     100.748      19.222
  C      100.135      98.905      20.832
  N       99.693      97.705      20.107
  C      100.175      97.508      18.813
  O      100.911      98.299      18.221
  N       99.757      96.351      18.207
  C       98.901      95.422      18.718
  O       98.542      94.430      18.113
  C       98.399      95.709      20.076
  C       98.813      96.815      20.696
  O       96.083      97.977      24.292
  O       95.381     100.419      24.369
  H       99.352     100.210      18.519
  H       96.047      98.171      25.245
  H      100.116      96.173      17.277
  H       97.711      94.993      20.522
  H       98.460      97.039      21.703
  H      101.209      99.054      20.653
  H       98.287     100.019      20.440
  H       99.026     101.892      21.796
  H      100.500     100.267      23.533
  H       98.479      99.347      24.464
  H       98.131     101.018      23.993
  P      101.378     103.050      21.995
  C      100.756     105.391      20.994
  O      100.493     104.012      21.062
  O      102.859     103.224      21.398
  O      101.290     103.285      23.459
  H      102.947     102.888      20.495
  H      101.833     105.596      20.968
  H      100.302     105.893      21.865
  H      100.308     105.795      20.079
  H       93.492      99.375      20.829
  H       94.907     100.390      20.969
  H       93.611     100.531      22.133

 3  4  5  6  7  8  9  10  11  12  13  23  28  29  30  31  32 0
 6-311+G(2d,p)
 ****
 33  34 0
 6-311+G(2d,p)
 ****
 1  2  14  15  16  17  18  19  20  21  22  24  25  26 0
 3-21G
 ****
 27  35  36  37  38  39  40  41  42  43  44  45 0
 3-21G
 ****


