%nproc=1
%NoSave
%Mem=1900MB
#P OB98/GEN NMR

erre ene a

0 1
  C     -251.629    -283.221    -734.553
  O     -252.656    -284.086    -734.975
  H     -251.949    -282.723    -733.628
  H     -251.436    -282.454    -735.304
  H     -250.707    -283.776    -734.343
  P     -252.375    -285.064    -736.221
  C     -253.337    -284.150    -738.437
  O     -252.242    -284.136    -737.524
  C     -254.512    -283.361    -737.852
  O     -254.066    -282.067    -737.387
  C     -255.615    -283.072    -738.857
  O     -256.406    -284.221    -739.108
  C     -256.354    -281.935    -738.155
  O     -257.258    -282.436    -737.164
  C     -255.185    -281.165    -737.492
  N     -254.833    -279.960    -738.248
  C     -255.276    -278.748    -737.722
  O     -255.920    -278.660    -736.674
  N     -254.993    -277.640    -738.475
  C     -254.449    -277.643    -739.725
  O     -254.449    -276.657    -740.464
  C     -253.948    -278.935    -740.206
  C     -254.162    -280.023    -739.460
  O     -253.311    -286.217    -736.357
  O     -250.866    -285.554    -735.979
  H     -250.879    -286.461    -735.608
  H     -257.825    -281.687    -736.917
  H     -255.349    -276.762    -738.122
  H     -253.445    -278.970    -741.170
  H     -253.828    -280.997    -739.800
  H     -255.459    -280.865    -736.465
  H     -256.930    -281.335    -738.860
  H     -255.188    -282.691    -739.791
  H     -254.899    -283.924    -736.984
  H     -253.644    -285.186    -738.607
  H     -253.011    -283.709    -739.390
  P     -256.967    -284.510    -740.593
  C     -259.476    -284.240    -741.101
  O     -258.240    -283.569    -740.827
  O     -257.175    -285.957    -740.916
  O     -255.860    -283.869    -741.555
  H     -255.602    -284.522    -742.227
  H     -260.252    -283.516    -741.239
  H     -259.726    -284.878    -740.279
  H     -259.374    -284.827    -741.990

 6  7  8  9  10  11  12  13  14  15  16  27  31  32  33  34  35 0
 6-311+G(2d,p)
 ****
 36  37 0
 6-311+G(2d,p)
 ****
 1  2  3  4  5  17  18  19  20  21  22  23  24  25 0
 3-21G
 ****
 26  28  29  30  38  39  40  41  42  43  44  45 0
 3-21G
 ****


