%nproc=1
%NoSave
%Mem=1900MB
#P OB98/GEN NMR

erre ene a

0 1
  C      377.864    -414.473    -902.795
  O      378.088    -413.122    -903.155
  P      377.806    -411.992    -902.046
  C      380.323    -411.303    -902.046
  O      378.962    -410.891    -902.230
  C      381.277    -410.238    -902.574
  O      381.005    -409.994    -903.971
  C      381.173    -408.890    -901.894
  O      381.871    -408.859    -900.654
  C      381.846    -407.980    -902.908
  O      383.267    -408.056    -902.764
  C      381.397    -408.617    -904.260
  N      380.035    -405.376    -907.885
  C      381.295    -405.844    -907.549
  N      382.330    -405.422    -908.299
  N      381.510    -406.672    -906.554
  C      380.380    -407.052    -905.910
  C      379.081    -406.644    -906.165
  C      378.864    -405.685    -907.232
  O      377.781    -405.191    -907.533
  N      378.196    -407.252    -905.301
  C      378.959    -408.059    -904.570
  N      380.286    -407.944    -904.889
  O      378.225    -412.724    -900.683
  O      376.413    -411.486    -902.008
  H      383.482    -407.747    -901.863
  H      377.739    -412.335    -899.925
  H      379.931    -404.753    -908.677
  H      378.571    -408.730    -903.814
  H      382.219    -408.670    -904.971
  H      381.551    -406.923    -902.809
  H      382.207    -404.892    -909.161
  H      380.119    -408.589    -901.754
  H      383.239    -405.788    -908.100
  H      382.302    -410.639    -902.494
  H      380.489    -412.243    -902.591
  H      380.476    -411.480    -900.973
  P      381.651    -407.567    -899.716
  C      380.329    -408.804    -897.859
  O      381.518    -408.139    -898.227
  O      380.169    -407.097    -900.110
  O      382.657    -406.479    -899.936
  H      380.067    -406.133    -899.944
  H      379.918    -409.397    -898.683
  H      379.588    -408.071    -897.543
  H      380.544    -409.467    -897.024
  H      378.092    -415.106    -903.627
  H      376.839    -414.603    -902.518
  H      378.492    -414.731    -901.968

 3  4  5  6  7  8  9  10  11  12  23  26  30  31  33  0
 6-311+G(2d,p)
 ****
 35  36  37  38 0
 6-311+G(2d,p)
 ****
 1  2  13  14  15  16  17  18  19  20  21  22  24  25  27  28  29 0
 3-21G
 ****
 32  34  39  40  41  42  43  44  45  46  47  48  49 0
 3-21G
 ****


