%nproc=1
%NoSave
%Mem=1900MB
#P OB98/GEN NMR

erre ene a

0 1
  C      -88.161     385.145    -110.107
  O      -89.023     386.219    -110.423
  H      -88.265     384.346    -110.845
  H      -87.127     385.505    -110.121
  H      -88.388     384.759    -109.107
  P      -90.592     385.892    -110.490
  C      -92.080     384.628    -112.211
  O      -90.766     384.922    -111.757
  C      -92.019     383.505    -113.241
  O      -91.688     382.254    -112.592
  C      -93.338     383.261    -113.966
  O      -93.541     384.161    -115.042
  C      -93.127     381.844    -114.466
  O      -92.260     381.852    -115.614
  C      -92.421     381.194    -113.267
  N      -95.262     377.050    -112.279
  C      -94.413     377.338    -113.288
  N      -93.676     378.455    -113.468
  C      -93.877     379.323    -112.460
  C      -94.709     379.163    -111.364
  C      -95.431     377.958    -111.295
  N      -96.325     377.673    -110.283
  N      -94.666     380.281    -110.556
  C      -93.814     381.093    -111.146
  N      -93.333     380.574    -112.320
  O      -91.247     387.263    -110.996
  O      -91.207     385.380    -109.229
  H      -91.368     382.101    -115.296
  H      -92.213     387.248    -110.859
  H      -94.309     376.575    -114.051
  H      -93.515     382.066    -110.776
  H      -91.696     380.426    -113.568
  H      -94.061     381.361    -114.774
  H      -94.185     383.273    -113.270
  H      -91.214     383.730    -113.954
  H      -92.507     385.525    -112.672
  H      -96.901     376.853    -110.398
  H      -96.565     378.400    -109.628
  H      -92.699     384.327    -111.362
  P      -95.055     384.592    -115.368
  C      -96.869     383.716    -117.009
  O      -95.663     383.440    -116.308
  O      -94.865     385.824    -116.373
  O      -95.871     384.956    -114.172
  H      -95.585     386.473    -116.266
  H      -97.148     382.861    -117.589
  H      -96.721     384.554    -117.658
  H      -97.646     383.941    -116.308

 6  7  8  9  10  11  12  13  14  15  25  28  32  33  34  35 0
 6-311+G(2d,p)
 ****
 36  39  40 0
 6-311+G(2d,p)
 ****
 1  2  3  4  5  16  17  18  19  20  21  22  23  24 0
 3-21G
 ****
 26  27  29  30  31  37  38  41  42  43  44  45  46  47 0
 3-21G
 ****
 48 0
 3-21G
 ****


