%nproc=1
%NoSave
%Mem=1900MB
#P OB98/GEN NMR

erre ene a

0 1
  C      114.423      99.164     -63.014
  O      114.587      99.670     -61.703
  H      113.358      99.125     -63.247
  H      114.837      98.155     -63.079
  H      114.920      99.815     -63.743
  P      116.076     100.033     -61.232
  C      115.633     102.593     -61.396
  O      116.004     101.497     -60.570
  C      115.112     103.745     -60.533
  O      113.733     103.445     -60.149
  C      115.907     103.968     -59.239
  O      115.947     105.377     -58.970
  C      115.056     103.287     -58.183
  O      115.269     103.771     -56.863
  C      113.648     103.585     -58.718
  N      112.634     102.686     -58.160
  C      112.162     102.966     -56.879
  O      112.473     103.956     -56.216
  N      111.293     102.040     -56.357
  C      110.879     100.888     -56.961
  O      110.112     100.085     -56.429
  C      111.419     100.643     -58.308
  C      112.256     101.536     -58.834
  O      116.837     100.290     -62.615
  O      116.757      99.004     -60.390
  H      117.225      99.459     -62.955
  H      114.602     103.343     -56.285
  H      110.942     102.228     -55.429
  H      111.119      99.735     -58.813
  H      112.694     101.376     -59.822
  H      113.369     104.624     -58.502
  H      115.250     102.205     -58.185
  H      116.928     103.570     -59.266
  H      115.084     104.656     -61.143
  H      114.850     102.276     -62.087
  H      116.506     102.918     -61.976
  P      117.384     106.035     -58.685
  C      118.980     105.215     -60.603
  O      118.073     106.207     -60.125
  O      118.163     104.805     -58.014
  O      117.307     107.272     -57.851
  H      117.903     103.943     -58.396
  H      119.337     105.495     -61.572
  H      118.477     104.273     -60.667
  H      119.806     105.133     -59.928

 6  7  8  9  10  11  12  13  14  15  16  27  31  32  33  34  35 0
 6-311+G(2d,p)
 ****
 36  37 0
 6-311+G(2d,p)
 ****
 1  2  3  4  5  17  18  19  20  21  22  23  24  25 0
 3-21G
 ****
 26  28  29  30  38  39  40  41  42  43  44  45 0
 3-21G
 ****


