%nproc=1
%NoSave
%Mem=1900MB
#P OB98/GEN NMR

erre ene a

0 1
  C      468.542     374.517     173.763
  O      467.276     375.157     173.973
  P      466.284     375.576     172.784
  C      464.973     373.395     172.279
  O      466.017     374.278     171.875
  C      463.622     373.889     171.760
  O      463.612     373.898     170.310
  C      462.425     373.013     172.139
  O      462.068     373.144     173.498
  C      461.371     373.520     171.154
  O      460.709     374.690     171.656
  C      462.213     373.875     169.912
  N      462.003     372.964     168.798
  C      461.923     373.536     167.526
  O      461.949     374.763     167.389
  N      461.796     372.704     166.442
  C      461.664     371.427     166.618
  N      461.560     370.654     165.498
  C      461.601     370.798     167.955
  C      461.776     371.615     168.986
  O      466.737     376.768     172.008
  O      464.866     375.846     173.480
  H      464.351     376.479     172.944
  H      460.447     374.494     172.576
  H      461.442     369.733     168.054
  H      461.768     371.232     170.002
  H      461.991     374.902     169.590
  H      460.592     372.770     170.964
  H      462.659     371.961     171.908
  H      463.470     374.914     172.122
  H      461.616     371.110     164.600
  H      464.949     373.365     173.370
  H      461.466     369.647     165.527
  H      465.196     372.385     171.909
  P      462.571     371.993     174.499
  C      464.735     373.090     175.433
  O      464.169     372.102     174.599
  O      462.329     370.642     173.670
  O      461.862     371.957     175.815
  H      462.012     369.941     174.273
  H      465.713     372.746     175.770
  H      464.105     373.296     176.304
  H      464.862     374.012     174.858
  H      469.014     374.341     174.707
  H      469.166     375.148     173.165
  H      468.391     373.585     173.260

 3  4  5  6  7  8  9  10  11  12  13  24  27  28  29  30  32 0
 6-311+G(2d,p)
 ****
 34  35 0
 6-311+G(2d,p)
 ****
 1  2  14  15  16  17  18  19  20  21  22  23  25  26 0
 3-21G
 ****
 31  33  36  37  38  39  40  41  42  43  44  45  46 0
 3-21G
 ****


