%nproc=1
%NoSave
%Mem=1900MB
#P OB98/GEN NMR

erre ene a

0 1
  C      366.224     127.738     414.873
  O      366.601     128.117     416.179
  H      365.859     128.623     414.344
  H      365.418     127.000     414.922
  H      367.070     127.325     414.321
  P      367.497     127.111     417.044
  C      366.943     125.188     418.676
  O      366.530     126.433     418.131
  C      366.447     125.025     420.117
  O      367.000     126.081     420.942
  C      364.923     125.164     420.179
  O      364.359     124.422     421.257
  C      364.732     126.650     420.442
  O      363.465     126.955     421.017
  C      365.923     126.943     421.357
  N      365.625     131.559     423.494
  C      364.900     130.416     423.775
  N      363.957     130.525     424.740
  N      365.074     129.276     423.157
  C      365.998     129.335     422.168
  C      366.759     130.413     421.777
  C      366.585     131.657     422.496
  O      367.186     132.704     422.277
  N      367.574     130.093     420.719
  C      367.303     128.828     420.462
  N      366.360     128.320     421.329
  O      368.400     128.084     417.943
  O      368.340     126.151     416.259
  H      363.392     126.456     421.853
  H      369.221     127.633     418.209
  H      365.460     132.404     424.011
  H      367.760     128.241     419.679
  H      365.675     126.697     422.401
  H      364.790     127.182     419.486
  H      363.671     131.414     425.112
  H      364.445     124.860     419.248
  H      363.234     129.801     424.752
  H      366.803     124.078     420.535
  H      368.036     125.175     418.653
  H      366.587     124.365     418.051
  P      362.887     123.820     421.051
  C      360.547     124.207     422.171
  O      361.886     124.634     421.999
  O      362.976     122.370     421.718
  O      362.466     123.753     419.620
  H      363.012     121.686     421.032
  H      360.042     124.876     422.836
  H      360.538     123.220     422.583
  H      360.050     124.203     421.224

 6  7  8  9  10  11  12  13  14  15  26  29  33  34 0
 6-311+G(2d,p)
 ****
 36  38  39  40  41 0
 6-311+G(2d,p)
 ****
 1  2  3  4  5  16  17  18  19  20  21  22  23  24  25 0
 3-21G
 ****
 27  28  30  31  32  35  37  42  43  44  45  46  47 0
 3-21G
 ****
 48  49 0
 3-21G
 ****


