%nproc=1
%NoSave
%Mem=1900MB
#P OB98/GEN NMR

erre ene a

0 1
  C      294.778     168.103    -128.346
  O      296.029     167.537    -128.759
  P      296.706     167.859    -130.176
  C      297.062     165.470    -131.081
  O      297.680     166.654    -130.585
  C      297.809     164.211    -130.630
  O      297.438     163.861    -129.282
  C      297.528     162.967    -131.462
  O      298.215     163.014    -132.702
  C      297.997     161.867    -130.516
  O      299.421     161.694    -130.586
  C      297.582     162.433    -129.142
  N      296.363     161.821    -128.630
  C      296.497     160.563    -128.035
  O      297.592     159.997    -128.014
  N      295.381     159.965    -127.506
  C      294.224     160.538    -127.623
  N      293.155     159.902    -127.071
  C      294.025     161.821    -128.322
  C      295.127     162.400    -128.793
  O      297.345     169.209    -130.251
  O      295.513     167.750    -131.240
  H      299.669     161.134    -129.825
  H      295.686     168.366    -131.976
  H      293.040     162.250    -128.424
  H      295.072     163.350    -129.310
  H      298.383     162.281    -128.409
  H      297.543     160.897    -130.740
  H      296.449     162.868    -131.628
  H      298.883     164.440    -130.633
  H      293.325     159.028    -126.592
  H      297.063     165.517    -132.176
  H      292.213     160.262    -127.105
  H      296.024     165.442    -130.732
  P      297.385     163.062    -134.069
  C      298.338     160.736    -134.588
  O      298.071     162.034    -135.085
  O      297.124     164.423    -134.620
  O      296.010     162.324    -133.701
  H      295.291     162.713    -134.235
  H      298.413     160.045    -135.431
  H      297.543     160.398    -133.919
  H      299.290     160.745    -134.049
  H      294.529     167.744    -127.369
  H      294.012     167.817    -129.036
  H      294.859     169.170    -128.324

 3  4  5  6  7  8  9  10  11  12  13  23  27  28  29  30  32 0
 6-311+G(2d,p)
 ****
 34  35 0
 6-311+G(2d,p)
 ****
 1  2  14  15  16  17  18  19  20  21  22  24  25  26 0
 3-21G
 ****
 31  33  36  37  38  39  40  41  42  43  44  45  46 0
 3-21G
 ****


