%nproc=1
%NoSave
%Mem=1900MB
#P OB98/GEN NMR

erre ene a

0 1
  C     -527.414     -31.325    -404.163
  O     -526.825     -30.446    -405.099
  H     -528.344     -31.709    -404.587
  H     -527.645     -30.799    -403.233
  H     -526.748     -32.169    -403.958
  P     -525.438     -29.737    -404.716
  C     -525.781     -28.179    -406.759
  O     -525.555     -28.268    -405.362
  C     -525.768     -26.722    -407.208
  O     -526.933     -26.019    -406.731
  C     -524.588     -25.904    -406.687
  O     -523.359     -26.204    -407.330
  C     -525.083     -24.503    -407.011
  O     -524.948     -24.254    -408.423
  C     -526.570     -24.611    -406.601
  N     -526.812     -24.146    -405.235
  C     -526.459     -22.821    -404.952
  O     -525.967     -22.104    -405.823
  N     -526.651     -22.339    -403.676
  C     -527.119     -23.124    -402.762
  N     -527.276     -22.601    -401.512
  C     -527.483     -24.533    -403.006
  C     -527.305     -24.969    -404.246
  O     -524.194     -30.493    -405.065
  O     -525.572     -29.414    -403.153
  H     -524.965     -23.288    -408.539
  H     -524.728     -28.981    -402.859
  H     -527.846     -25.155    -402.194
  H     -527.548     -25.999    -404.508
  H     -527.208     -24.047    -407.291
  H     -524.530     -23.723    -406.489
  H     -524.495     -25.996    -405.600
  H     -525.812     -26.714    -408.306
  H     -527.018     -21.633    -401.371
  H     -526.744     -28.650    -406.979
  H     -527.559     -23.159    -400.716
  H     -524.996     -28.714    -407.299
  P     -522.218     -26.887    -406.421
  C     -520.403     -25.891    -408.024
  O     -520.872     -26.055    -406.693
  O     -521.972     -28.285    -407.152
  O     -522.562     -27.038    -404.974
  H     -522.453     -28.999    -406.693
  H     -519.502     -25.314    -408.016
  H     -521.146     -25.384    -408.604
  H     -520.209     -26.851    -408.454

 6  7  8  9  10  11  12  13  14  15  16  26  30  31  32  33  35 0
 6-311+G(2d,p)
 ****
 37  38 0
 6-311+G(2d,p)
 ****
 1  2  3  4  5  17  18  19  20  21  22  23  24  25 0
 3-21G
 ****
 27  28  29  34  36  39  40  41  42  43  44  45  46 0
 3-21G
 ****


