%nproc=1
%NoSave
%Mem=1900MB
#P OB98/GEN NMR

erre ene a

0 1
  C      222.729     402.508     439.049
  O      223.159     403.840     439.363
  P      222.880     404.398     440.843
  C      222.612     407.020     441.162
  O      223.446     405.889     440.977
  C      223.466     408.188     441.695
  O      223.844     407.953     443.069
  C      224.764     408.405     440.919
  O      224.574     409.224     439.779
  C      225.671     409.014     441.969
  O      225.356     410.410     442.151
  C      225.271     408.196     443.220
  N      225.953     406.897     443.455
  C      227.316     406.873     443.715
  O      228.039     407.867     443.755
  N      227.861     405.631     443.935
  C      227.171     404.457     444.106
  O      227.706     403.386     444.366
  C      225.712     404.580     443.975
  C      225.183     405.756     443.655
  O      223.860     403.543     441.769
  O      221.448     404.296     441.289
  H      225.560     410.857     441.302
  H      223.338     402.983     442.391
  H      228.863     405.577     444.056
  H      225.118     403.682     444.142
  H      224.099     405.841     443.554
  H      225.401     408.794     444.138
  H      226.727     408.972     441.663
  H      225.190     407.434     440.630
  H      222.863     409.110     441.658
  H      221.809     406.803     441.857
  H      222.156     407.295     440.211
  P      224.810     408.640     438.310
  C      226.310     410.492     437.344
  O      225.022     409.921     437.352
  O      223.819     407.622     437.832
  O      226.305     408.018     438.391
  H      226.279     407.054     438.579
  H      226.343     411.252     436.558
  H      227.065     409.726     437.167
  H      226.506     410.984     438.303
  H      222.983     402.281     438.035
  H      221.669     402.436     439.176
  H      223.214     401.813     439.702

 3  4  5  6  7  8  9  10  11  12  13  23  28  29  30  31  32 0
 6-311+G(2d,p)
 ****
 33  34 0
 6-311+G(2d,p)
 ****
 1  2  14  15  16  17  18  19  20  21  22  24  25  26  27 0
 3-21G
 ****
 35  36  37  38  39  40  41  42  43  44  45 0
 3-21G
 ****


