%nproc=1
%NoSave
%Mem=1900MB
#P OB98/GEN NMR

erre ene a

0 1
  C     -475.509    -328.936    -418.167
  O     -475.876    -327.816    -417.391
  H     -474.502    -329.240    -417.889
  H     -475.520    -328.686    -419.234
  H     -476.190    -329.772    -417.975
  P     -477.302    -327.127    -417.654
  C     -476.194    -324.949    -416.814
  O     -477.343    -325.795    -416.764
  C     -476.296    -323.859    -415.743
  O     -477.365    -322.959    -416.129
  C     -476.627    -324.429    -414.351
  O     -475.718    -324.005    -413.341
  C     -478.104    -324.072    -414.172
  O     -478.519    -323.944    -412.821
  C     -478.261    -322.797    -415.009
  N     -479.618    -322.553    -415.466
  C     -480.257    -321.409    -414.996
  O     -479.762    -320.581    -414.234
  N     -481.547    -321.227    -415.435
  C     -482.238    -322.052    -416.275
  O     -483.384    -321.826    -416.638
  C     -481.511    -323.250    -416.727
  C     -480.264    -323.442    -416.312
  O     -478.489    -328.019    -417.499
  O     -477.190    -326.557    -419.149
  H     -478.458    -324.826    -412.406
  H     -477.669    -327.149    -419.761
  H     -482.018    -320.399    -415.102
  H     -482.038    -323.933    -417.383
  H     -479.704    -324.320    -416.624
  H     -477.932    -321.921    -414.441
  H     -478.704    -324.869    -414.614
  H     -476.528    -325.520    -414.339
  H     -475.363    -323.287    -415.732
  H     -476.148    -324.505    -417.810
  H     -475.293    -325.552    -416.643
  P     -474.711    -324.966    -412.556
  C     -474.651    -323.823    -410.196
  O     -473.984    -324.106    -411.419
  O     -473.848    -325.828    -413.415
  O     -475.701    -325.936    -411.728
  H     -475.256    -326.803    -411.669
  H     -474.010    -323.241    -409.567
  H     -474.898    -324.740    -409.704
  H     -475.547    -323.274    -410.397

 6  7  8  9  10  11  12  13  14  15  16  26  31  32  33  34  35 0
 6-311+G(2d,p)
 ****
 36  37 0
 6-311+G(2d,p)
 ****
 1  2  3  4  5  17  18  19  20  21  22  23  24  25 0
 3-21G
 ****
 27  28  29  30  38  39  40  41  42  43  44  45 0
 3-21G
 ****


