%nproc=1
%NoSave
%Mem=1900MB
#P OB98/GEN NMR

erre ene a

0 1
  C     -237.374    -114.232    -351.935
  O     -236.275    -113.653    -352.607
  H     -237.167    -115.286    -351.735
  H     -237.517    -113.715    -350.982
  H     -238.288    -114.137    -352.529
  P     -236.065    -114.045    -354.148
  C     -237.058    -111.918    -355.257
  O     -237.229    -113.298    -354.969
  C     -237.874    -111.064    -354.289
  O     -237.419    -111.337    -352.933
  C     -237.754    -109.551    -354.528
  O     -239.036    -108.954    -354.303
  C     -236.804    -109.101    -353.434
  O     -236.974    -107.729    -353.086
  C     -237.162    -110.068    -352.309
  N     -235.346    -108.084    -347.995
  C     -236.559    -108.002    -348.586
  N     -236.976    -108.611    -349.715
  C     -236.021    -109.421    -350.202
  C     -234.742    -109.613    -349.706
  C     -234.405    -108.884    -348.552
  N     -233.154    -108.907    -347.980
  N     -234.036    -110.481    -350.518
  C     -234.866    -110.783    -351.498
  N     -236.075    -110.166    -351.352
  O     -236.517    -115.584    -354.174
  O     -234.685    -113.861    -354.678
  H     -236.732    -107.178    -353.856
  H     -235.755    -116.151    -353.960
  H     -237.282    -107.356    -348.096
  H     -234.633    -111.412    -352.344
  H     -238.060    -109.764    -351.762
  H     -235.769    -109.246    -353.765
  H     -237.395    -109.287    -355.529
  H     -238.921    -111.383    -354.346
  H     -237.401    -111.722    -356.279
  H     -232.976    -108.270    -347.219
  H     -232.413    -109.411    -348.448
  H     -235.995    -111.664    -355.186
  P     -239.797    -108.339    -355.574
  C     -242.346    -108.501    -355.068
  O     -241.217    -109.070    -355.718
  O     -238.961    -108.914    -356.814
  O     -239.850    -106.846    -355.588
  H     -238.962    -108.272    -357.547
  H     -243.209    -109.103    -355.260
  H     -242.511    -107.512    -355.441
  H     -242.167    -108.460    -354.014

 6  7  8  9  10  11  12  13  14  15  25  28  32  33  34  35 0
 6-311+G(2d,p)
 ****
 36  39  40 0
 6-311+G(2d,p)
 ****
 1  2  3  4  5  16  17  18  19  20  21  22  23  24 0
 3-21G
 ****
 26  27  29  30  31  37  38  41  42  43  44  45  46  47 0
 3-21G
 ****
 48 0
 3-21G
 ****


