%nproc=1
%NoSave
%Mem=1900MB
#P OB98/GEN NMR

erre ene a

0 1
  C      -17.151    -515.329      19.544
  O      -16.767    -516.325      18.615
  H      -16.330    -515.182      20.252
  H      -18.037    -515.647      20.103
  H      -17.345    -514.382      19.035
  P      -17.807    -516.734      17.464
  C      -19.874    -518.300      17.424
  O      -18.737    -517.850      18.152
  C      -19.831    -519.818      17.260
  O      -19.967    -520.489      18.530
  C      -20.947    -520.399      16.397
  O      -20.783    -520.154      15.014
  C      -20.801    -521.873      16.750
  O      -19.658    -522.420      16.066
  C      -20.560    -521.793      18.271
  N      -21.793    -521.953      19.047
  C      -22.097    -523.252      19.471
  O      -21.362    -524.196      19.189
  N      -23.258    -523.467      20.186
  C      -24.055    -522.468      20.428
  N      -25.193    -522.732      21.128
  C      -23.780    -521.085      19.982
  C      -22.644    -520.904      19.307
  O      -17.208    -517.117      16.143
  O      -18.812    -515.491      17.370
  H      -19.958    -522.686      15.179
  H      -19.475    -515.690      16.662
  H      -24.490    -520.297      20.189
  H      -22.380    -519.919      18.944
  H      -19.834    -522.550      18.595
  H      -21.666    -522.468      16.461
  H      -21.930    -520.054      16.746
  H      -18.835    -520.073      16.865
  H      -25.353    -523.689      21.419
  H      -19.878    -517.796      16.454
  H      -25.904    -522.035      21.300
  H      -20.788    -518.034      17.968
  P      -22.123    -520.108      14.121
  C      -23.720    -521.928      13.134
  O      -22.610    -521.634      13.962
  O      -21.578    -519.726      12.666
  O      -23.183    -519.170      14.611
  H      -21.691    -518.768      12.499
  H      -23.903    -522.982      13.144
  H      -23.512    -521.612      12.133
  H      -24.584    -521.412      13.499

 6  7  8  9  10  11  12  13  14  15  16  26  30  31  32  33  35 0
 6-311+G(2d,p)
 ****
 37  38 0
 6-311+G(2d,p)
 ****
 1  2  3  4  5  17  18  19  20  21  22  23  24  25 0
 3-21G
 ****
 27  28  29  34  36  39  40  41  42  43  44  45  46 0
 3-21G
 ****


