%nproc=1
%NoSave
%Mem=1900MB
#P OB98/GEN NMR

erre ene a

0 1
  C      -23.619    -103.955    -196.060
  O      -23.416    -103.505    -194.735
  H      -24.622    -103.663    -196.378
  H      -23.540    -105.045    -196.111
  H      -22.891    -103.496    -196.734
  P      -22.026    -103.847    -194.017
  C      -23.184    -105.671    -192.600
  O      -22.143    -105.368    -193.521
  C      -22.721    -106.732    -191.606
  O      -22.535    -107.997    -192.270
  C      -21.397    -106.410    -190.916
  O      -21.600    -105.516    -189.834
  C      -20.979    -107.796    -190.458
  O      -21.740    -108.170    -189.292
  C      -21.398    -108.666    -191.658
  N      -17.764    -111.751    -193.399
  C      -18.526    -111.840    -192.249
  N      -18.260    -112.882    -191.434
  N      -19.454    -110.979    -191.924
  C      -19.562    -109.951    -192.796
  C      -18.853    -109.743    -193.958
  C      -17.874    -110.740    -194.342
  O      -17.195    -110.711    -195.365
  N      -19.173    -108.540    -194.536
  C      -20.112    -108.046    -193.751
  N      -20.379    -108.861    -192.675
  O      -21.585    -102.893    -192.949
  O      -20.973    -103.935    -195.217
  H      -22.636    -108.400    -189.595
  H      -20.541    -103.074    -195.370
  H      -17.057    -112.440    -193.594
  H      -20.633    -107.111    -193.916
  H      -21.731    -109.663    -191.347
  H      -19.924    -107.854    -190.186
  H      -17.463    -113.489    -191.554
  H      -20.654    -106.032    -191.627
  H      -18.768    -112.931    -190.558
  H      -23.522    -106.872    -190.868
  H      -24.039    -106.036    -193.178
  H      -23.490    -104.769    -192.059
  P      -20.548    -104.348    -189.498
  C      -19.354    -105.874    -187.784
  O      -19.235    -105.101    -188.967
  O      -21.063    -103.282    -188.596
  O      -20.071    -103.824    -190.929
  H      -20.677    -103.139    -191.310
  H      -18.408    -106.315    -187.550
  H      -20.080    -106.646    -187.934
  H      -19.664    -105.244    -186.976

 6  7  8  9  10  11  12  13  14  15  26  29  33  34 0
 6-311+G(2d,p)
 ****
 36  38  39  40  41 0
 6-311+G(2d,p)
 ****
 1  2  3  4  5  16  17  18  19  20  21  22  23  24  25 0
 3-21G
 ****
 27  28  30  31  32  35  37  42  43  44  45  46  47 0
 3-21G
 ****
 48  49 0
 3-21G
 ****


