%nproc=1
%NoSave
%Mem=1900MB
#P OB98/GEN NMR

erre ene a

0 1
  C      236.799      73.744     175.972
  O      235.527      73.673     176.583
  H      237.418      74.452     176.530
  H      236.706      74.097     174.940
  H      237.280      72.764     175.987
  P      234.435      72.727     175.879
  C      233.638      74.764     174.473
  O      234.074      73.410     174.473
  C      232.597      74.969     173.381
  O      232.196      76.358     173.337
  C      233.097      74.650     171.977
  O      233.122      73.254     171.721
  C      232.075      75.390     171.131
  O      230.884      74.606     170.936
  C      231.779      76.643     171.983
  N      232.430      77.837     171.451
  C      232.028      79.043     172.016
  O      231.177      79.127     172.905
  N      232.607      80.170     171.495
  C      233.502      80.208     170.461
  O      233.930      81.259     169.992
  C      233.898      78.897     169.913
  C      233.347      77.792     170.418
  O      233.127      72.962     176.769
  O      234.809      71.285     175.798
  H      232.992      72.208     177.371
  H      230.272      75.171     170.425
  H      232.324      81.056     171.882
  H      234.614      78.892     169.098
  H      233.610      76.815     170.015
  H      230.699      76.833     172.021
  H      232.468      75.620     170.139
  H      234.085      75.100     171.815
  H      231.713      74.362     173.622
  H      234.495      75.422     174.284
  H      233.223      75.002     175.460
  P      234.214      72.682     170.696
  C      232.561      71.951     168.786
  O      233.586      72.827     169.225
  O      234.137      71.114     171.005
  O      235.565      73.292     170.859
  H      233.235      70.814     171.213
  H      232.277      72.207     167.786
  H      231.713      72.042     169.432
  H      232.919      70.943     168.808

 6  7  8  9  10  11  12  13  14  15  16  27  31  32  33  34  35 0
 6-311+G(2d,p)
 ****
 36  37 0
 6-311+G(2d,p)
 ****
 1  2  3  4  5  17  18  19  20  21  22  23  24  25 0
 3-21G
 ****
 26  28  29  30  38  39  40  41  42  43  44  45 0
 3-21G
 ****


