%nproc=1
%NoSave
%Mem=1900MB
#P OB98/GEN NMR

erre ene a

0 1
  C      -38.397     257.760    -338.440
  O      -38.795     259.114    -338.647
  P      -39.854     259.433    -339.808
  C      -41.629     261.284    -340.127
  O      -40.315     260.967    -339.676
  C      -42.033     262.690    -339.659
  O      -42.258     262.670    -338.223
  C      -40.974     263.781    -339.899
  O      -40.989     264.477    -341.144
  C      -41.356     264.800    -338.833
  O      -42.418     265.642    -339.312
  C      -41.859     263.941    -337.675
  N      -40.175     265.575    -333.118
  C      -41.205     265.971    -333.897
  N      -41.585     265.483    -335.099
  C      -40.788     264.468    -335.481
  C      -39.701     263.956    -334.787
  C      -39.394     264.553    -333.546
  N      -38.341     264.154    -332.764
  N      -39.120     262.925    -335.494
  C      -39.833     262.832    -336.602
  N      -40.861     263.738    -336.633
  O      -40.955     258.442    -339.976
  O      -38.924     259.473    -341.113
  H      -43.048     265.062    -339.773
  H      -39.412     259.080    -341.870
  H      -41.802     266.791    -333.506
  H      -39.644     262.129    -337.407
  H      -42.738     264.380    -337.182
  H      -40.523     265.469    -338.578
  H      -39.966     263.391    -339.703
  H      -42.978     262.979    -340.152
  H      -42.335     260.544    -339.729
  H      -38.163     264.667    -331.915
  H      -37.715     263.434    -333.100
  H      -41.640     261.173    -341.211
  P      -40.314     263.845    -342.462
  C      -39.808     264.792    -344.846
  O      -40.291     265.033    -343.535
  O      -40.932     262.576    -342.946
  O      -38.775     263.718    -342.032
  H      -38.320     264.570    -341.915
  H      -40.069     265.646    -345.479
  H      -40.257     263.889    -345.271
  H      -38.716     264.697    -344.831
  H      -37.692     257.714    -337.636
  H      -37.945     257.381    -339.333
  H      -39.255     257.169    -338.196

 3  4  5  6  7  8  9  10  11  12  22  25  29  30  31  32 0
 6-311+G(2d,p)
 ****
 33  36  37 0
 6-311+G(2d,p)
 ****
 1  2  13  14  15  16  17  18  19  20  21  23  24  26 0
 3-21G
 ****
 27  28  34  35  38  39  40  41  42  43  44  45  46  47  48 0
 3-21G
 ****


