%nproc=1
%NoSave
%Mem=1900MB
#P OB98/GEN NMR

erre ene a

0 1
  C      256.611    -228.430    -266.400
  O      256.618    -228.324    -267.808
  H      255.930    -229.236    -266.110
  H      256.258    -227.490    -265.956
  H      257.612    -228.662    -266.027
  P      257.645    -227.276    -268.457
  C      255.900    -225.365    -268.822
  O      257.060    -225.811    -268.130
  C      255.332    -224.123    -268.145
  O      254.187    -223.655    -268.909
  C      254.846    -224.380    -266.708
  O      255.126    -223.236    -265.899
  C      253.344    -224.541    -266.872
  O      252.604    -224.271    -265.691
  C      253.068    -223.543    -268.006
  N      251.812    -223.812    -268.700
  C      250.657    -223.245    -268.181
  O      250.621    -222.466    -267.226
  N      249.486    -223.598    -268.809
  C      249.371    -224.461    -269.862
  O      248.288    -224.762    -270.369
  C      250.625    -225.042    -270.355
  C      251.774    -224.701    -269.767
  O      257.383    -227.424    -270.033
  O      259.076    -227.460    -268.094
  H      257.974    -228.105    -270.414
  H      251.707    -223.981    -265.955
  H      248.637    -223.192    -268.449
  H      250.563    -225.738    -271.186
  H      252.713    -225.117    -270.103
  H      253.066    -222.519    -267.618
  H      253.104    -225.560    -267.191
  H      255.299    -225.272    -266.260
  H      256.089    -223.323    -268.165
  H      255.151    -226.168    -268.813
  H      256.169    -225.143    -269.865
  P      256.657    -222.990    -265.469
  C      256.390    -223.421    -262.897
  O      256.885    -223.885    -264.151
  O      256.589    -221.488    -264.928
  O      257.621    -223.226    -266.586
  H      255.770    -221.278    -264.457
  H      256.627    -224.133    -262.134
  H      255.328    -223.301    -262.955
  H      256.843    -222.481    -262.660

 6  7  8  9  10  11  12  13  14  15  16  27  31  32  33  34  35 0
 6-311+G(2d,p)
 ****
 36  37 0
 6-311+G(2d,p)
 ****
 1  2  3  4  5  17  18  19  20  21  22  23  24  25 0
 3-21G
 ****
 26  28  29  30  38  39  40  41  42  43  44  45 0
 3-21G
 ****


