%nproc=1
%NoSave
%Mem=1900MB
#P OB98/GEN NMR

erre ene a

0 1
  C     -516.754     527.149    1041.713
  O     -517.910     527.863    1042.182
  P     -518.000     528.546    1043.628
  C     -519.313     530.728    1043.133
  O     -518.048     530.142    1043.427
  C     -519.372     531.201    1041.679
  O     -519.233     530.066    1040.781
  C     -520.680     531.849    1041.250
  O     -520.823     533.151    1041.782
  C     -520.555     531.798    1039.733
  O     -519.801     532.908    1039.228
  C     -519.774     530.485    1039.509
  N     -520.591     529.438    1038.911
  C     -520.282     529.074    1037.599
  O     -519.422     529.681    1036.965
  N     -520.978     528.036    1037.027
  C     -521.964     527.489    1037.675
  N     -522.604     526.451    1037.062
  C     -522.405     527.939    1039.011
  C     -521.682     528.901    1039.566
  O     -516.940     528.098    1044.579
  O     -519.453     528.186    1044.180
  H     -519.450     528.193    1045.156
  H     -518.996     532.981    1039.775
  H     -523.254     527.475    1039.495
  H     -521.926     529.284    1040.547
  H     -518.906     530.668    1038.864
  H     -521.536     531.826    1039.240
  H     -521.522     531.215    1041.571
  H     -518.527     531.880    1041.504
  H     -522.270     526.162    1036.156
  H     -519.459     531.588    1043.788
  H     -523.366     525.939    1037.491
  H     -520.106     529.993    1043.338
  P     -521.684     533.300    1043.131
  C     -520.175     534.767    1044.644
  O     -520.660     533.480    1044.348
  O     -522.290     531.832    1043.354
  O     -522.764     534.325    1043.069
  H     -523.201     531.897    1043.684
  H     -519.916     534.808    1045.713
  H     -520.929     535.536    1044.431
  H     -519.279     534.967    1044.065
  H     -516.936     526.787    1040.722
  H     -516.557     526.323    1042.364
  H     -515.909     527.805    1041.704

 3  4  5  6  7  8  9  10  11  12  13  24  27  28  29  30  32 0
 6-311+G(2d,p)
 ****
 34  35 0
 6-311+G(2d,p)
 ****
 1  2  14  15  16  17  18  19  20  21  22  23  25  26 0
 3-21G
 ****
 31  33  36  37  38  39  40  41  42  43  44  45  46 0
 3-21G
 ****


