%nproc=1
%NoSave
%Mem=1900MB
#P OB98/GEN NMR

erre ene a

0 1
  C       86.110    -244.643       4.932
  O       85.752    -243.337       5.379
  P       86.887    -242.414       6.032
  C       85.939    -239.942       6.018
  O       86.218    -241.136       6.716
  C       86.054    -238.751       6.984
  O       84.941    -238.741       7.903
  C       87.328    -238.779       7.826
  O       88.420    -238.173       7.158
  C       86.894    -238.037       9.074
  O       86.881    -236.617       8.834
  C       85.452    -238.568       9.255
  N       85.263    -239.834       9.997
  C       85.231    -239.822      11.389
  O       85.354    -238.810      12.076
  N       85.034    -241.034      11.997
  C       84.703    -242.203      11.377
  O       84.480    -243.247      11.977
  C       84.603    -242.130       9.915
  C       84.893    -240.979       9.304
  O       87.660    -241.812       4.771
  O       87.810    -243.137       6.962
  H       87.768    -236.369       8.519
  H       88.581    -242.131       4.751
  H       85.079    -241.056      13.005
  H       84.296    -243.021       9.385
  H       84.822    -240.914       8.221
  H       84.824    -237.817       9.749
  H       87.592    -238.199       9.893
  H       87.569    -239.807       8.113
  H       86.018    -237.825       6.397
  H       84.938    -239.971       5.580
  H       86.645    -239.828       5.189
  P       89.695    -239.054       6.753
  C       90.260    -237.389       4.885
  O       90.721    -238.033       6.056
  O       89.412    -240.305       5.992
  O       90.406    -239.353       8.159
  H       90.134    -240.233       8.507
  H       90.979    -236.614       4.604
  H       89.287    -236.923       5.062
  H       90.184    -238.112       4.068
  H       85.248    -245.129       4.524
  H       86.483    -245.213       5.757
  H       86.867    -244.567       4.179

 3  4  5  6  7  8  9  10  11  12  13  23  28  29  30  31  32 0
 6-311+G(2d,p)
 ****
 33  34 0
 6-311+G(2d,p)
 ****
 1  2  14  15  16  17  18  19  20  21  22  24  25  26  27 0
 3-21G
 ****
 35  36  37  38  39  40  41  42  43  44  45 0
 3-21G
 ****


