%nproc=1
%NoSave
%Mem=1900MB
#P OB98/GEN NMR

erre ene a

0 1
  C      560.610     516.498    -192.544
  O      560.735     516.391    -191.119
  P      561.758     515.285    -190.563
  C      563.064     515.158    -188.317
  O      561.840     515.463    -188.972
  C      562.890     515.206    -186.789
  O      562.787     516.567    -186.330
  C      561.632     514.512    -186.291
  O      561.799     513.107    -186.217
  C      561.513     515.112    -184.889
  O      562.372     514.398    -183.975
  C      562.023     516.550    -185.089
  N      559.409     520.166    -182.677
  C      560.449     519.368    -182.234
  N      560.867     519.597    -180.969
  N      561.028     518.442    -182.954
  C      560.514     518.361    -184.222
  C      559.492     519.091    -184.771
  C      558.840     520.082    -183.952
  O      557.898     520.784    -184.286
  N      559.262     518.718    -186.070
  C      560.177     517.790    -186.316
  N      560.953     517.531    -185.215
  O      563.179     515.816    -191.071
  O      561.476     513.900    -191.046
  H      562.379     514.906    -183.136
  H      563.800     515.075    -191.172
  H      558.990     520.854    -182.073
  H      560.318     517.284    -187.262
  H      562.693     516.863    -184.292
  H      560.488     515.040    -184.483
  H      560.520     520.334    -180.378
  H      560.759     514.792    -186.894
  H      561.652     519.042    -180.633
  H      563.781     514.756    -186.335
  H      563.836     515.876    -188.612
  H      563.414     514.175    -188.640
  P      561.177     512.231    -187.418
  C      561.200     509.686    -187.926
  O      561.307     510.699    -186.951
  O      562.264     512.382    -188.576
  O      559.821     512.671    -187.858
  H      561.836     512.298    -189.453
  H      561.747     509.943    -188.841
  H      560.140     509.522    -188.172
  H      561.608     508.761    -187.528
  H      559.903     517.265    -192.783
  H      560.272     515.565    -192.944
  H      561.561     516.744    -192.968

 3  4  5  6  7  8  9  10  11  12  23  26  30  31  33  0
 6-311+G(2d,p)
 ****
 35  36  37  38 0
 6-311+G(2d,p)
 ****
 1  2  13  14  15  16  17  18  19  20  21  22  24  25  27  28  29 0
 3-21G
 ****
 32  34  39  40  41  42  43  44  45  46  47  48  49 0
 3-21G
 ****


