%nproc=1
%NoSave
%Mem=1900MB
#P OB98/GEN NMR

erre ene a

0 1
  C      113.323      26.849     170.715
  O      113.152      26.545     172.084
  H      113.591      27.901     170.595
  H      114.132      26.232     170.315
  H      112.407      26.632     170.160
  P      112.012      27.369     172.857
  C      113.633      28.301     174.646
  O      112.491      27.496     174.386
  C      114.307      27.850     175.939
  O      113.311      27.859     176.996
  C      114.919      26.441     175.871
  O      116.270      26.454     176.343
  C      114.076      25.624     176.834
  O      114.825      24.623     177.513
  C      113.536      26.684     177.785
  N      111.620      23.570     181.338
  C      112.864      24.063     181.160
  N      113.288      24.964     180.252
  C      112.265      25.388     179.491
  C      110.939      24.996     179.569
  C      110.630      24.023     180.534
  N      109.372      23.480     180.679
  N      110.178      25.645     178.615
  C      111.038      26.384     177.944
  N      112.313      26.250     178.428
  O      110.794      26.330     172.928
  O      111.609      28.641     172.194
  H      115.644      25.041     177.836
  H      110.031      26.707     172.451
  H      113.625      23.676     181.834
  H      110.803      26.993     177.080
  H      114.263      26.938     178.567
  H      113.268      25.136     176.276
  H      114.891      26.020     174.861
  H      115.073      28.586     176.212
  H      113.328      29.348     174.749
  H      109.265      22.706     181.314
  H      108.659      23.734     180.010
  H      114.327      28.219     173.804
  P      117.364      27.090     175.348
  C      118.541      24.929     174.515
  O      118.633      26.105     175.310
  O      117.888      28.369     176.155
  O      116.813      27.474     174.016
  H      117.771      29.174     175.615
  H      119.455      24.377     174.588
  H      118.369      25.201     173.494
  H      117.730      24.325     174.865

 6  7  8  9  10  11  12  13  14  15  25  28  32  33  34  35 0
 6-311+G(2d,p)
 ****
 36  39  40 0
 6-311+G(2d,p)
 ****
 1  2  3  4  5  16  17  18  19  20  21  22  23  24 0
 3-21G
 ****
 26  27  29  30  31  37  38  41  42  43  44  45  46  47  48 0
 3-21G
 ****


