%nproc=1
%NoSave
%Mem=1900MB
#P OB98/GEN NMR

erre ene a

0 1
  C      416.981     364.502     609.424
  O      416.636     365.557     608.554
  P      416.536     365.300     606.978
  C      418.375     367.035     606.520
  O      417.946     365.685     606.323
  C      419.886     367.069     606.780
  O      420.297     365.932     607.568
  C      420.733     367.021     605.511
  O      420.735     368.268     604.851
  C      422.083     366.593     606.081
  O      422.785     367.722     606.621
  C      421.661     365.638     607.207
  N      424.898     361.964     605.753
  C      425.058     363.300     605.900
  N      424.139     364.218     606.257
  C      422.942     363.636     606.443
  C      422.626     362.293     606.290
  C      423.671     361.425     605.950
  N      423.541     360.064     605.862
  N      421.276     362.085     606.545
  C      420.792     363.289     606.820
  N      421.774     364.236     606.841
  O      415.344     365.894     606.310
  O      416.514     363.704     606.857
  H      423.593     367.381     607.054
  H      415.673     363.419     606.432
  H      426.068     363.676     605.717
  H      419.754     363.505     607.037
  H      422.267     365.781     608.116
  H      422.734     366.129     605.328
  H      420.360     366.229     604.842
  H      420.109     367.991     607.356
  H      417.841     367.450     607.378
  H      424.390     359.524     605.749
  H      422.729     359.623     606.290
  H      418.130     367.628     605.632
  P      420.209     368.378     603.344
  C      422.707     368.243     602.809
  O      421.398     367.897     602.394
  O      419.579     369.686     602.972
  O      419.152     367.175     603.230
  H      418.431     367.427     602.617
  H      422.903     369.292     602.570
  H      423.426     367.620     602.254
  H      422.839     368.076     603.875
  H      416.998     364.862     610.432
  H      417.948     364.127     609.163
  H      416.259     363.717     609.337

 3  4  5  6  7  8  9  10  11  12  22  25  29  30  31  32 0
 6-311+G(2d,p)
 ****
 33  36  37 0
 6-311+G(2d,p)
 ****
 1  2  13  14  15  16  17  18  19  20  21  23  24  26 0
 3-21G
 ****
 27  28  34  35  38  39  40  41  42  43  44  45  46  47  48 0
 3-21G
 ****


