%nproc=1
%NoSave
%Mem=1900MB
#P OB98/GEN NMR

erre ene a

0 1
  C      341.382    -494.348     490.567
  O      341.602    -495.126     489.409
  H      342.124    -494.625     491.317
  H      340.385    -494.559     490.969
  H      341.478    -493.282     490.352
  P      340.844    -494.730     488.052
  C      338.943    -496.456     487.837
  O      340.258    -496.095     487.444
  C      338.835    -497.972     488.059
  O      339.392    -498.291     489.368
  C      337.394    -498.506     488.020
  O      337.452    -499.853     487.523
  C      337.032    -498.507     489.495
  O      335.907    -499.325     489.750
  C      338.355    -498.960     490.115
  N      338.433    -498.664     491.547
  C      338.200    -499.723     492.415
  O      337.906    -500.861     492.036
  N      338.268    -499.434     493.751
  C      338.478    -498.198     494.287
  O      338.498    -497.989     495.499
  C      338.675    -497.105     493.324
  C      338.648    -497.382     492.014
  O      341.632    -493.906     487.088
  O      339.524    -493.971     488.545
  H      335.182    -499.107     489.126
  H      339.252    -493.305     487.884
  H      338.110    -500.196     494.392
  H      338.832    -496.108     493.716
  H      338.789    -496.601     491.282
  H      338.495    -500.044     489.991
  H      336.781    -497.495     489.833
  H      336.722    -497.900     487.416
  H      339.464    -498.482     487.317
  H      338.254    -496.153     487.039
  H      338.675    -495.930     488.759
  P      336.431    -500.387     486.405
  C      335.824    -502.623     487.548
  O      336.442    -501.998     486.423
  O      336.636    -499.790     485.050
  O      334.980    -500.022     486.971
  H      334.357    -499.890     486.227
  H      335.893    -503.686     487.448
  H      334.794    -502.336     487.595
  H      336.321    -502.316     488.444

 6  7  8  9  10  11  12  13  14  15  16  26  31  32  33  34  35 0
 6-311+G(2d,p)
 ****
 36  37 0
 6-311+G(2d,p)
 ****
 1  2  3  4  5  17  18  19  20  21  22  23  24  25 0
 3-21G
 ****
 27  28  29  30  38  39  40  41  42  43  44  45 0
 3-21G
 ****


