%nproc=1
%NoSave
%Mem=1900MB
#P OB98/GEN NMR

erre ene a

0 1
  C     -898.510     565.749    -899.410
  O     -898.450     565.436    -898.020
  H     -897.980     566.698    -899.570
  H     -899.550     565.873    -899.720
  H     -898.030     564.968    -900.000
  P     -899.020     563.999    -897.590
  C     -896.690     562.984    -896.910
  O     -897.820     562.944    -897.770
  C     -896.620     561.701    -896.080
  O     -896.500     560.541    -896.930
  C     -895.380     561.612    -895.190
  O     -895.440     562.487    -894.090
  C     -895.430     560.138    -894.810
  O     -896.390     559.906    -893.770
  C     -895.890     559.496    -896.140
  N     -894.790     558.848    -896.850
  C     -894.000     557.966    -896.100
  O     -894.240     557.781    -894.910
  N     -892.930     557.363    -896.710
  C     -892.670     557.586    -897.970
  N     -891.610     556.962    -898.510
  C     -893.510     558.480    -898.800
  C     -894.540     559.075    -898.190
  O     -900.000     563.632    -898.800
  O     -899.660     563.947    -896.240
  H     -896.520     558.946    -893.720
  H     -899.580     563.685    -899.670
  H     -893.270     558.636    -899.850
  H     -895.180     559.754    -898.740
  H     -896.660     558.736    -895.960
  H     -894.460     559.782    -894.430
  H     -894.470     561.774    -895.790
  H     -897.550     561.607    -895.490
  H     -891.050     556.371    -897.890
  H     -896.730     563.867    -896.250
  H     -891.290     557.088    -899.460
  H     -895.790     563.095    -897.530
  P     -894.080     563.037    -893.410
  C     -894.530     565.380    -894.400
  O     -893.600     564.285    -894.300
  O     -893.040     562.001    -893.170
  O     -894.620     563.756    -892.080
  H     -895.240     564.488    -892.230
  H     -894.109     566.150    -895.012
  H     -894.729     565.769    -893.423
  H     -895.442     565.034    -894.839

 6  7  8  9  10  11  12  13  14  15  16  26  30  31  32  33  35 0
 6-311+G(2d,p)
 ****
 37  38 0
 6-311+G(2d,p)
 ****
 1  2  3  4  5  17  18  19  20  21  22  23  24  25 0
 3-21G
 ****
 27  28  29  34  36  39  40  41  42  43  44  45  46 0
 3-21G
 ****


