%nproc=1
%NoSave
%Mem=1900MB
#P OB98/GEN NMR

erre ene a

0 1
  C      303.482       7.855     547.739
  O      302.914       8.808     548.617
  H      304.370       8.291     547.275
  H      302.766       7.594     546.953
  H      303.772       6.958     548.290
  P      301.601       8.354     549.418
  C      302.691       8.789     551.737
  O      302.100       7.845     550.855
  C      304.139       8.393     552.021
  O      304.863       8.270     550.772
  C      304.911       9.424     552.837
  O      304.607       9.351     554.218
  C      306.345       9.039     552.510
  O      306.799       7.956     553.333
  C      306.248       8.588     551.048
  N      307.785       9.496     546.265
  C      307.297       8.383     546.861
  N      306.898       8.228     548.141
  C      307.014       9.383     548.816
  C      307.488      10.595     548.341
  C      307.889      10.627     546.995
  N      308.407      11.750     546.393
  N      307.496      11.541     549.348
  C      307.024      10.918     550.407
  N      306.717       9.612     550.134
  O      301.167       7.009     548.668
  O      300.498       9.356     549.445
  H      307.748       7.838     553.134
  H      300.439       7.202     548.048
  H      307.227       7.501     546.230
  H      306.894      11.362     551.387
  H      306.835       7.684     550.851
  H      307.019       9.881     552.668
  H      304.718      10.433     552.450
  H      304.144       7.415     552.518
  H      302.132       8.806     552.680
  H      302.646       9.783     551.279
  H      308.736      11.684     545.443
  H      308.595      12.569     546.959
  P      303.706      10.523     554.844
  C      301.695       9.040     555.591
  O      302.175      10.059     554.724
  O      303.828      11.712     553.776
  O      304.116      10.959     556.211
  H      303.830      12.571     554.239
  H      300.663       8.851     555.382
  H      301.801       9.357     556.607
  H      302.260       8.145     555.436

 6  7  8  9  10  11  12  13  14  15  25  28  32  33  34  35 0
 6-311+G(2d,p)
 ****
 36  37  40 0
 6-311+G(2d,p)
 ****
 1  2  3  4  5  16  17  18  19  20  21  22  23  24 0
 3-21G
 ****
 26  27  29  30  31  38  39 41  42  43  44  45  46  47  48 0
 3-21G
 ****


