%nproc=1
%NoSave
%Mem=1900MB
#P OB98/GEN NMR

erre ene a

0 1
  C      -47.820    -391.586    -406.884
  O      -48.735    -392.659    -406.628
  P      -49.909    -392.529    -405.535
  C      -49.284    -394.541    -404.068
  O      -50.271    -393.968    -404.920
  C      -49.756    -395.831    -403.373
  O      -50.740    -395.535    -402.337
  C      -50.399    -396.873    -404.299
  O      -50.094    -398.147    -403.728
  C      -51.883    -396.564    -404.150
  O      -52.729    -397.627    -404.560
  C      -51.952    -396.242    -402.661
  N      -57.060    -396.247    -402.260
  C      -56.174    -397.250    -402.438
  N      -54.827    -397.178    -402.499
  C      -54.406    -395.914    -402.306
  C      -55.193    -394.791    -402.099
  C      -56.583    -394.990    -402.087
  N      -57.498    -393.966    -401.955
  N      -54.409    -393.656    -401.968
  C      -53.170    -394.091    -402.109
  N      -53.114    -395.448    -402.311
  O      -51.099    -391.750    -406.008
  O      -49.222    -391.765    -404.304
  H      -53.656    -397.327    -404.501
  H      -49.816    -391.061    -403.988
  H      -56.601    -398.244    -402.568
  H      -52.282    -393.477    -402.097
  H      -51.973    -397.158    -402.061
  H      -52.133    -395.683    -404.771
  H      -50.048    -396.809    -405.329
  H      -48.888    -396.266    -402.859
  H      -49.005    -393.799    -403.310
  H      -58.477    -394.195    -402.054
  H      -57.169    -393.014    -401.954
  H      -48.387    -394.760    -404.666
  P      -48.831    -399.012    -404.220
  C      -50.125    -401.228    -404.108
  O      -49.024    -400.482    -403.600
  O      -47.501    -398.387    -403.962
  O      -49.084    -399.230    -405.784
  H      -48.248    -399.475    -406.216
  H      -51.050    -400.861    -403.656
  H      -49.985    -402.281    -403.842
  H      -50.191    -401.134    -405.196
  H      -47.126    -391.883    -407.642
  H      -47.288    -391.349    -405.986
  H      -48.363    -390.725    -407.215

 3  4  5  6  7  8  9  10  11  12  22  25  29  30  31  32 0
 6-311+G(2d,p)
 ****
 33  36  37 0
 6-311+G(2d,p)
 ****
 1  2  13  14  15  16  17  18  19  20  21  23  24  26 0
 3-21G
 ****
 27  28  34  35  38  39  40  41  42  43  44  45  46  47  48 0
 3-21G
 ****


