%nproc=1
%NoSave
%Mem=1900MB
#P OB98/GEN NMR

erre ene a

0 1
  C       53.853      19.479      16.707
  O       53.281      20.306      15.707
  P       52.397      19.681      14.522
  C       53.026      17.913      12.765
  O       53.460      19.051      13.500
  C       53.877      17.744      11.509
  O       53.753      18.945      10.710
  C       55.378      17.568      11.739
  O       55.779      16.235      12.019
  C       55.922      17.980      10.377
  O       55.765      16.897       9.441
  C       55.001      19.144       9.999
  N       58.876      22.390       9.204
  C       58.581      21.184       8.668
  N       57.539      20.372       8.946
  C       56.729      20.938       9.854
  C       56.893      22.161      10.485
  C       58.030      22.905      10.126
  N       58.315      24.145      10.657
  N       55.861      22.395      11.373
  C       55.084      21.337      11.266
  N       55.560      20.434      10.356
  O       51.404      20.620      13.931
  O       51.718      18.390      15.176
  H       56.052      16.083       9.899
  H       50.965      18.096      14.627
  H       59.278      20.819       7.918
  H       54.174      21.182      11.828
  H       54.766      19.164       8.929
  H       56.986      18.228      10.401
  H       55.750      18.263      12.500
  H       53.471      16.908      10.927
  H       51.981      18.070      12.473
  H       59.077      24.660      10.247
  H       57.606      24.597      11.217
  H       53.076      17.025      13.399
  P       56.903      16.031      13.152
  C       58.923      17.604      13.696
  O       58.129      16.969      12.718
  O       57.250      14.611      13.434
  O       56.279      16.800      14.411
  H       56.207      17.763      14.314
  H       59.789      18.057      13.205
  H       59.280      16.885      14.436
  H       58.349      18.392      14.192
  H       54.400      20.084      17.400
  H       54.514      18.772      16.250
  H       53.076      18.957      17.226

 3  4  5  6  7  8  9  10  11  12  22  25  29  30  31  32 0
 6-311+G(2d,p)
 ****
 33  36  37 0
 6-311+G(2d,p)
 ****
 1  2  13  14  15  16  17  18  19  20  21  23  24  26 0
 3-21G
 ****
 27  28  34  35  38  39  40  41  42  43  44  45  46  47  48 0
 3-21G
 ****


