%nproc=1
%NoSave
%Mem=1900MB
#P OB98/GEN NMR

erre ene a

0 1
  C      203.135      24.390    -127.842
  O      203.286      23.052    -127.362
  P      202.344      21.947    -128.048
  C      204.119      20.769    -129.531
  O      203.266      20.677    -128.399
  C      204.521      19.375    -130.032
  O      205.549      18.794    -129.178
  C      203.350      18.374    -130.072
  O      203.576      17.521    -131.205
  C      203.548      17.606    -128.773
  O      202.828      16.382    -128.732
  C      205.069      17.493    -128.765
  N      206.815      13.600    -125.961
  C      206.320      13.659    -127.216
  N      205.872      14.739    -127.894
  C      205.977      15.847    -127.138
  C      206.458      15.947    -125.840
  C      206.895      14.749    -125.241
  N      207.380      14.675    -123.955
  N      206.385      17.258    -125.390
  C      205.800      17.912    -126.378
  N      205.615      17.124    -127.478
  O      202.005      22.582    -129.480
  O      201.115      21.635    -127.260
  H      203.271      15.721    -129.304
  H      201.123      22.997    -129.466
  H      206.279      12.710    -127.748
  H      205.494      18.951    -126.349
  H      205.434      16.761    -129.494
  H      203.200      18.220    -127.934
  H      202.369      18.845    -130.166
  H      204.951      19.479    -131.039
  H      205.022      21.330    -129.277
  H      207.664      13.769    -123.611
  H      207.442      15.508    -123.383
  H      203.612      21.343    -130.317
  P      202.628      17.681    -132.491
  C      204.609      18.056    -134.083
  O      203.535      17.199    -133.726
  O      202.654      19.275    -132.682
  O      201.255      17.098    -132.375
  H      203.569      19.614    -132.675
  H      205.189      17.578    -134.876
  H      205.257      18.231    -133.220
  H      204.215      19.005    -134.458
  H      203.808      25.035    -127.317
  H      202.129      24.716    -127.680
  H      203.355      24.420    -128.889

 3  4  5  6  7  8  9  10  11  12  22  25  29  30  31  32 0
 6-311+G(2d,p)
 ****
 33  36  37 0
 6-311+G(2d,p)
 ****
 1  2  13  14  15  16  17  18  19  20  21  23  24  26 0
 3-21G
 ****
 27  28  34  35  38  39  40  41  42  43  44  45  46  47  48 0
 3-21G
 ****


