%nproc=1
%NoSave
%Mem=1900MB
#P OB98/GEN NMR

erre ene a

0 1
  C       23.843     179.378     -14.218
  O       22.970     179.954     -13.271
  H       23.853     180.005     -15.114
  H       23.491     178.382     -14.495
  H       24.859     179.318     -13.819
  P       22.918     179.285     -11.811
  C       20.774     177.998     -12.511
  O       22.082     177.922     -11.961
  C       20.174     176.596     -12.651
  O       20.866     175.894     -13.714
  C       20.283     175.752     -11.376
  O       19.090     174.976     -11.239
  C       21.455     174.828     -11.659
  O       21.396     173.617     -10.903
  C       21.345     174.644     -13.177
  N       22.628     174.260     -13.764
  C       22.818     172.899     -14.021
  O       21.933     172.086     -13.747
  N       24.022     172.482     -14.528
  C       24.985     173.338     -14.680
  N       26.165     172.856     -15.158
  C       24.851     174.771     -14.357
  C       23.657     175.161     -13.918
  O       21.920     180.240     -11.004
  O       24.235     179.132     -11.132
  H       20.620     173.101     -11.210
  H       22.157     180.279     -10.058
  H       25.693     175.441     -14.478
  H       23.467     176.193     -13.649
  H       20.603     173.873     -13.421
  H       22.394     175.337     -11.405
  H       20.437     176.349     -10.473
  H       19.127     176.698     -12.962
  H       26.223     171.864     -15.351
  H       20.830     178.459     -13.501
  H       26.994     173.420     -15.274
  H       20.145     178.620     -11.866
  P       18.102     175.380     -10.036
  C       18.730     173.329      -8.571
  O       18.677     174.748      -8.684
  O       16.790     174.517     -10.336
  O       17.802     176.842      -9.982
  H       16.070     175.099     -10.646
  H       19.135     173.062      -7.617
  H       19.352     172.932      -9.346
  H       17.743     172.927      -8.665

 6  7  8  9  10  11  12  13  14  15  16  26  30  31  32  33  35 0
 6-311+G(2d,p)
 ****
 37  38 0
 6-311+G(2d,p)
 ****
 1  2  3  4  5  17  18  19  20  21  22  23  24  25 0
 3-21G
 ****
 27  28  29  34  36  39  40  41  42  43  44  45  46 0
 3-21G
 ****


