%nproc=1
%NoSave
%Mem=1900MB
#P OB98/GEN NMR

erre ene a

0 1
  C       18.627     -79.252    -343.195
  O       18.005     -79.110    -341.931
  H       18.357     -78.393    -343.813
  H       18.282     -80.165    -343.686
  H       19.712     -79.277    -343.073
  P       18.243     -80.295    -340.875
  C       16.120     -79.927    -339.454
  O       17.537     -79.773    -339.526
  C       15.573     -79.204    -338.216
  O       15.668     -77.772    -338.439
  C       14.110     -79.533    -337.919
  O       13.921     -79.613    -336.502
  C       13.354     -78.334    -338.469
  O       12.096     -78.139    -337.818
  C       14.359     -77.202    -338.235
  N       11.863     -72.804    -338.912
  C       11.990     -73.612    -337.842
  N       12.694     -74.770    -337.741
  C       13.345     -75.024    -338.893
  C       13.308     -74.296    -340.066
  C       12.510     -73.127    -340.057
  N       12.357     -72.310    -341.150
  N       14.069     -74.907    -341.047
  C       14.569     -75.981    -340.458
  N       14.141     -76.106    -339.164
  O       19.652     -80.753    -340.723
  O       17.214     -81.405    -341.395
  H       12.257     -78.149    -336.849
  H       16.349     -81.009    -341.625
  H       11.455     -73.305    -336.944
  H       15.229     -76.703    -340.933
  H       14.310     -76.787    -337.223
  H       13.166     -78.477    -339.537
  H       13.786     -80.463    -338.389
  H       16.214     -79.432    -337.356
  H       15.855     -80.987    -339.397
  H       11.779     -71.487    -341.053
  H       12.850     -72.523    -342.007
  H       15.689     -79.504    -340.361
  P       13.696     -81.058    -335.846
  C       12.454     -80.691    -333.606
  O       13.720     -80.899    -334.236
  O       14.543     -82.161    -336.385
  O       12.142     -81.331    -336.135
  H       12.023     -82.283    -336.331
  H       12.592     -80.601    -332.549
  H       11.812     -81.522    -333.812
  H       12.010     -79.795    -333.986

 6  7  8  9  10  11  12  13  14  15  25  28  32  33  34  35 0
 6-311+G(2d,p)
 ****
 36  39  40 0
 6-311+G(2d,p)
 ****
 1  2  3  4  5  16  17  18  19  20  21  22  23  24 0
 3-21G
 ****
 26  27  29  30  31  37  38  41  42  43  44  45  46  47 0
 3-21G
 ****
 48 0
 3-21G
 ****


