%nproc=1
%NoSave
%Mem=1900MB
#P OB98/GEN NMR

erre ene a

0 1
  C      842.743     342.429    -237.807
  O      842.337     341.064    -237.844
  P      843.388     339.877    -237.596
  C      843.451     339.175    -240.069
  O      844.176     339.727    -238.983
  C      844.166     339.460    -241.397
  O      844.194     340.901    -241.590
  C      845.634     339.019    -241.459
  O      845.818     337.661    -241.819
  C      846.136     339.919    -242.592
  O      845.732     339.373    -243.858
  C      845.404     341.234    -242.313
  N      849.083     344.797    -242.495
  C      848.477     344.063    -243.462
  N      847.524     343.114    -243.329
  C      847.159     342.993    -242.042
  C      847.667     343.663    -240.953
  C      848.690     344.613    -241.220
  N      849.281     345.374    -240.222
  N      847.068     343.249    -239.781
  C      846.181     342.345    -240.173
  N      846.194     342.161    -241.526
  O      842.783     338.626    -237.056
  O      844.480     340.517    -236.613
  H      846.135     339.921    -244.551
  H      845.003     339.808    -236.204
  H      848.820     344.239    -244.481
  H      845.525     341.816    -239.510
  H      845.097     341.742    -243.228
  H      847.242     339.986    -242.608
  H      846.170     339.271    -240.535
  H      843.581     339.022    -242.211
  H      842.451     339.639    -240.093
  H      849.901     346.111    -240.535
  H      848.879     345.361    -239.302
  H      843.320     338.102    -239.920
  P      847.264     337.013    -241.514
  C      848.218     337.637    -243.879
  O      848.291     337.784    -242.477
  O      847.311     335.530    -241.611
  O      847.614     337.582    -240.065
  H      847.759     338.552    -240.012
  H      848.891     338.358    -244.349
  H      847.201     337.808    -244.237
  H      848.551     336.622    -244.158
  H      841.898     343.058    -237.996
  H      843.489     342.600    -238.555
  H      843.147     342.655    -236.842

 3  4  5  6  7  8  9  10  11  12  22  25  29  30  31  32 0
 6-311+G(2d,p)
 ****
 33  36  37 0
 6-311+G(2d,p)
 ****
 1  2  13  14  15  16  17  18  19  20  21  23  24  26 0
 3-21G
 ****
 27  28  34  35  38  39  40  41  42  43  44  45  46  47  48 0
 3-21G
 ****


