%nproc=1
%NoSave
%Mem=1900MB
#P OB98/GEN NMR

erre ene a

0 1
  C        1.277      94.827     452.936
  O        0.460      95.927     452.589
  H        1.385      94.797     454.023
  H        2.269      94.937     452.488
  H        0.822      93.890     452.599
  P        0.101      96.101     451.037
  C       -0.079      98.673     450.747
  O       -0.775      97.442     450.917
  C       -0.981      99.854     451.108
  O       -2.226      99.743     450.364
  C       -1.350      99.936     452.602
  O       -1.430     101.322     452.960
  C       -2.749      99.356     452.636
  O       -3.486      99.763     453.786
  C       -3.297      99.890     451.311
  N       -8.268      99.518     452.039
  C       -7.340     100.382     452.592
  N       -7.808     101.290     453.477
  N       -6.067     100.360     452.297
  C       -5.749      99.429     451.374
  C       -6.561      98.509     450.757
  C       -7.964      98.527     451.111
  O       -8.828      97.775     450.670
  N       -5.846      97.704     449.897
  C       -4.601      98.145     450.002
  N       -4.492      99.183     450.883
  O       -0.967      94.930     450.789
  O        1.258      96.007     450.093
  H       -4.373      99.327     453.749
  H       -0.519      94.129     450.461
  H       -9.227      99.571     452.311
  H       -3.754      97.734     449.466
  H       -3.564     100.951     451.367
  H       -2.710      98.259     452.628
  H       -8.786     101.397     453.716
  H       -0.652      99.423     453.266
  H       -7.156     101.963     453.860
  H       -0.489     100.777     450.776
  H        0.226      98.759     449.698
  H        0.812      98.671     451.381
  P       -1.092     101.727     454.476
  C       -2.850     103.334     455.553
  O       -1.688     103.203     454.739
  O        0.488     101.991     454.433
  O       -1.458     100.695     455.487
  H        0.874     101.814     455.310
  H       -3.117     104.367     455.630
  H       -2.648     102.944     456.529
  H       -3.658     102.789     455.112

 6  7  8  9  10  11  12  13  14  15  26  29  33  34 0
 6-311+G(2d,p)
 ****
 36  38  39  40  41 0
 6-311+G(2d,p)
 ****
 1  2  3  4  5  16  17  18  19  20  21  22  23  24  25 0
 3-21G
 ****
 27  28  30  31  32  35  37  42  43  44  45  46  47 0
 3-21G
 ****
 48  49 0
 3-21G
 ****


