%nproc=1
%NoSave
%Mem=1900MB
#P OB98/GEN NMR

erre ene a

0 1
  C     -386.631    -223.230    -202.800
  O     -386.128    -223.587    -204.071
  P     -384.746    -223.037    -204.656
  C     -382.797    -224.038    -206.066
  O     -383.880    -224.294    -205.174
  C     -381.885    -225.257    -206.262
  O     -381.128    -225.499    -205.055
  C     -382.725    -226.519    -206.506
  O     -383.208    -226.813    -207.805
  C     -381.952    -227.646    -205.842
  O     -381.160    -228.398    -206.768
  C     -381.051    -226.912    -204.840
  N     -379.476    -229.075    -200.517
  C     -378.742    -228.735    -201.638
  N     -377.477    -229.203    -201.684
  N     -379.218    -228.024    -202.633
  C     -380.532    -227.708    -202.490
  C     -381.355    -227.969    -201.420
  C     -380.806    -228.717    -200.310
  O     -381.448    -229.109    -199.335
  N     -382.645    -227.558    -201.655
  C     -382.606    -227.087    -202.886
  N     -381.357    -227.188    -203.446
  O     -384.055    -221.976    -203.859
  O     -385.227    -222.363    -206.042
  H     -381.746    -228.701    -207.486
  H     -384.663    -221.582    -206.197
  H     -379.082    -229.688    -199.818
  H     -383.462    -226.684    -203.422
  H     -379.995    -227.192    -204.993
  H     -382.639    -228.361    -205.373
  H     -377.128    -229.873    -201.009
  H     -383.633    -226.406    -205.903
  H     -376.966    -229.128    -202.559
  H     -381.138    -225.064    -207.044
  H     -382.233    -223.192    -205.659
  H     -383.199    -223.722    -207.039
  P     -384.418    -227.798    -208.162
  C     -385.526    -228.784    -210.259
  O     -384.497    -227.942    -209.759
  O     -385.741    -226.959    -207.825
  O     -384.416    -229.101    -207.418
  H     -386.492    -227.564    -207.673
  H     -385.305    -229.049    -211.296
  H     -386.480    -228.246    -210.226
  H     -385.602    -229.699    -209.666
  H     -387.566    -223.724    -202.635
  H     -386.775    -222.171    -202.758
  H     -385.933    -223.526    -202.044

 3  4  5  6  7  8  9  10  11  12  23  26  30  31 0
 6-311+G(2d,p)
 ****
 33  35  36  37  38 0
 6-311+G(2d,p)
 ****
 1  2  13  14  15  16  17  18  19  20  21  22  24  25 0
 3-21G
 ****
 27  28  29  32  34  39  40  41  42  43  44  45  46  47  48  49 0
 3-21G
 ****


