%nproc=1
%NoSave
%Mem=1900MB
#P OB98/GEN NMR

erre ene a

0 1
  C       88.923    -162.096      91.638
  O       87.840    -162.653      92.390
  P       87.230    -164.099      92.053
  C       86.369    -164.527      94.434
  O       86.022    -164.449      93.055
  C       86.356    -163.163      95.138
  O       85.111    -162.458      94.884
  C       86.522    -163.221      96.663
  O       87.202    -162.019      97.032
  C       85.082    -163.189      97.143
  O       84.946    -162.808      98.504
  C       84.480    -162.197      96.152
  N       80.000    -161.196      98.420
  C       81.256    -160.776      98.688
  N       82.391    -161.055      98.018
  C       82.138    -161.822      96.944
  C       80.910    -162.320      96.539
  C       79.802    -161.987      97.339
  N       78.529    -162.450      97.099
  N       81.046    -163.098      95.406
  C       82.337    -163.077      95.141
  N       83.040    -162.316      96.039
  O       88.253    -165.182      91.937
  O       86.492    -163.895      90.645
  H       85.324    -163.514      99.058
  H       86.723    -164.637      90.053
  H       81.362    -160.137      99.560
  H       82.818    -163.607      94.329
  H       84.712    -161.162      96.433
  H       84.643    -164.188      97.033
  H       87.068    -164.103      97.010
  H       87.154    -162.556      94.694
  H       87.371    -164.966      94.515
  H       77.819    -162.234      97.781
  H       78.384    -163.141      96.377
  H       85.668    -165.205      94.934
  P       88.800    -161.950      97.126
  C       89.212    -159.776      95.842
  O       89.194    -160.399      97.113
  O       89.524    -162.788      96.125
  O       89.136    -162.406      98.625
  H       90.070    -162.680      98.679
  H       90.119    -160.070      95.301
  H       89.213    -158.692      95.977
  H       88.333    -160.059      95.256
  H       89.170    -161.131      92.029
  H       88.633    -162.001      90.612
  H       89.775    -162.739      91.710

 3  4  5  6  7  8  9  10  11  12  22  25  29  30  31  32 0
 6-311+G(2d,p)
 ****
 33  36  37 0
 6-311+G(2d,p)
 ****
 1  2  13  14  15  16  17  18  19  20  21  23  24  26 0
 3-21G
 ****
 27  28  34  35  38  39  40  41  42  43  44  45  46  47  48 0
 3-21G
 ****


