%nproc=1
%NoSave
%Mem=1900MB
#P OB98/GEN NMR

erre ene a

0 1
  C     -520.294    -581.034    -196.855
  O     -521.515    -581.701    -197.111
  H     -520.031    -580.439    -197.731
  H     -519.501    -581.764    -196.665
  H     -520.403    -580.369    -195.994
  P     -522.100    -582.604    -195.919
  C     -522.399    -584.941    -197.036
  O     -523.008    -583.726    -196.625
  C     -522.690    -585.195    -198.525
  O     -524.134    -585.219    -198.716
  C     -522.125    -584.104    -199.454
  O     -521.810    -584.710    -200.721
  C     -523.327    -583.191    -199.625
  O     -523.148    -582.344    -200.730
  C     -524.431    -584.239    -199.736
  N     -528.557    -582.411    -202.112
  C     -527.419    -582.972    -202.581
  N     -526.365    -583.440    -201.879
  C     -526.589    -583.313    -200.561
  C     -527.696    -582.766    -199.932
  C     -528.720    -582.289    -200.775
  N     -529.865    -581.699    -200.307
  N     -527.538    -582.794    -198.558
  C     -526.361    -583.356    -198.362
  N     -525.752    -583.689    -199.542
  O     -523.164    -581.634    -195.220
  O     -521.097    -583.127    -194.950
  H     -523.057    -582.857    -201.562
  H     -522.745    -581.151    -194.485
  H     -527.347    -583.049    -203.664
  H     -525.897    -583.533    -197.400
  H     -524.430    -584.751    -200.710
  H     -523.465    -582.559    -198.743
  H     -521.235    -583.607    -199.054
  H     -522.315    -586.188    -198.798
  H     -522.801    -585.753    -196.430
  H     -521.319    -584.876    -196.882
  H     -530.539    -581.361    -200.975
  H     -529.984    -581.571    -199.310
  P     -520.318    -585.252    -200.976
  C     -518.875    -584.183    -202.869
  O     -519.913    -585.082    -202.521
  O     -520.519    -586.844    -200.854
  O     -519.286    -584.785    -199.997
  H     -519.811    -587.218    -200.299
  H     -518.736    -584.192    -203.930
  H     -517.968    -584.482    -202.387
  H     -519.138    -583.195    -202.553

 6  7  8  9  10  11  12  13  14  15  25  28  32  33  34  35 0
 6-311+G(2d,p)
 ****
 36  37  40 0
 6-311+G(2d,p)
 ****
 1  2  3  4  5  16  17  18  19  20  21  22  23  24 0
 3-21G
 ****
 26  27  29  30  31  38  39 41  42  43  44  45  46  47  48 0
 3-21G
 ****


