%nproc=1
%NoSave
%Mem=1900MB
#P OB98/GEN NMR

erre ene a

0 1
  C        3.078    -460.202    -270.320
  O        4.151    -460.549    -271.202
  P        5.123    -461.726    -270.699
  C        7.188    -460.235    -270.157
  O        6.168    -461.093    -269.653
  C        7.994    -459.628    -269.009
  O        7.200    -458.775    -268.167
  C        8.605    -460.670    -268.080
  O        9.779    -461.207    -268.670
  C        8.889    -459.852    -266.831
  O       10.146    -459.144    -266.936
  C        7.718    -458.849    -266.815
  N        5.497    -457.716    -262.394
  C        6.681    -457.253    -262.935
  N        7.354    -456.335    -262.213
  N        7.155    -457.650    -264.088
  C        6.381    -458.566    -264.707
  C        5.173    -459.086    -264.281
  C        4.659    -458.645    -263.003
  O        3.612    -459.006    -262.492
  N        4.646    -459.956    -265.211
  C        5.590    -460.050    -266.131
  N        6.636    -459.184    -265.905
  O        6.016    -462.041    -271.986
  O        4.397    -462.935    -270.216
  H       10.879    -459.785    -266.862
  H        5.776    -462.914    -272.354
  H        5.186    -457.390    -261.499
  H        5.560    -460.711    -266.982
  H        8.057    -457.842    -266.531
  H        8.959    -460.473    -265.943
  H        7.047    -455.980    -261.312
  H        7.877    -461.454    -267.861
  H        8.222    -455.971    -262.596
  H        8.795    -459.014    -269.460
  H        6.737    -459.437    -270.757
  H        7.827    -460.808    -270.832
  P        9.679    -462.649    -269.374
  C       10.535    -463.831    -267.228
  O        9.525    -463.740    -268.206
  O       11.154    -462.888    -269.939
  O        8.660    -462.735    -270.460
  H       11.106    -463.242    -270.845
  H       10.089    -464.183    -266.293
  H       11.017    -462.870    -267.053
  H       11.296    -464.556    -267.555
  H        2.500    -459.413    -270.754
  H        3.478    -459.877    -269.382
  H        2.454    -461.057    -270.164

 3  4  5  6  7  8  9  10  11  12  23  26  30  31 0
 6-311+G(2d,p)
 ****
 33  35  36  37  38 0
 6-311+G(2d,p)
 ****
 1  2  13  14  15  16  17  18  19  20  21  22  24  25 0
 3-21G
 ****
 27  28  29  32  34  39  40  41  42  43  44  45  46  47  48  49 0
 3-21G
 ****


