%nproc=1
%NoSave
%Mem=1900MB
#P OB98/GEN NMR

erre ene a

0 1
  C     -343.718     268.996     424.536
  O     -344.528     269.789     423.694
  H     -344.243     268.060     424.752
  H     -343.535     269.516     425.482
  H     -342.766     268.761     424.051
  P     -343.884     271.145     423.119
  C     -345.455     272.905     424.224
  O     -345.080     272.212     423.036
  C     -346.945     273.253     424.203
  O     -347.710     272.018     424.266
  C     -347.382     274.143     425.365
  O     -348.355     275.075     424.880
  C     -348.046     273.172     426.324
  O     -349.001     273.808     427.179
  C     -348.633     272.129     425.369
  N     -348.840     270.850     426.032
  C     -350.013     270.717     426.779
  O     -350.802     271.654     426.873
  N     -350.230     269.541     427.472
  C     -349.315     268.620     427.471
  N     -349.580     267.494     428.196
  C     -348.034     268.742     426.746
  C     -347.872     269.868     426.056
  O     -343.598     270.798     421.586
  O     -342.672     271.626     423.835
  H     -349.319     273.144     427.831
  H     -342.811     271.280     421.259
  H     -347.294     267.964     426.802
  H     -346.958     270.053     425.492
  H     -349.592     272.481     424.960
  H     -347.286     272.710     426.971
  H     -346.557     274.688     425.828
  H     -347.172     273.727     423.233
  H     -350.462     267.456     428.688
  H     -344.872     273.827     424.293
  H     -348.922     266.735     428.305
  H     -345.220     272.280     425.093
  P     -348.333     276.539     425.543
  C     -350.772     276.321     426.438
  O     -349.859     277.061     425.637
  O     -347.691     277.454     424.399
  O     -347.564     276.609     426.821
  H     -346.791     277.714     424.657
  H     -351.735     276.785     426.402
  H     -350.424     276.300     427.449
  H     -350.844     275.321     426.065

 6  7  8  9  10  11  12  13  14  15  16  26  30  31  32  33  35 0
 6-311+G(2d,p)
 ****
 37  38 0
 6-311+G(2d,p)
 ****
 1  2  3  4  5  17  18  19  20  21  22  23  24  25 0
 3-21G
 ****
 27  28  29  34  36  39  40  41  42  43  44  45  46 0
 3-21G
 ****


