%nproc=1
%NoSave
%Mem=1900MB
#P OB98/GEN NMR

erre ene a

0 1
  C     -229.305     176.350     359.693
  O     -229.421     175.303     358.755
  P     -230.731     175.134     357.851
  C     -229.946     176.859     356.107
  O     -230.938     176.526     357.074
  C     -230.577     176.963     354.711
  O     -231.171     175.671     354.372
  C     -231.684     178.032     354.632
  O     -231.522     178.976     353.572
  C     -232.953     177.197     354.575
  O     -234.068     177.882     354.039
  C     -232.473     175.955     353.818
  N     -233.392     174.829     353.949
  C     -234.715     175.039     353.569
  O     -235.152     176.099     353.122
  N     -235.569     173.994     353.769
  C     -235.272     172.830     354.407
  O     -236.116     171.973     354.640
  C     -233.870     172.674     354.821
  C     -233.003     173.652     354.559
  O     -231.946     174.648     358.570
  O     -230.238     174.166     356.676
  H     -234.864     177.346     354.209
  H     -229.497     174.510     356.145
  H     -236.530     174.136     353.498
  H     -233.606     171.765     355.338
  H     -231.960     173.568     354.851
  H     -232.335     176.165     352.758
  H     -233.214     176.918     355.603
  H     -231.699     178.652     355.539
  H     -229.773     177.172     354.000
  H     -229.185     176.081     356.096
  H     -229.455     177.798     356.387
  P     -232.252     180.398     353.489
  C     -230.618     181.939     354.795
  O     -231.843     181.247     354.780
  O     -233.716     180.346     353.204
  O     -231.474     181.148     352.307
  H     -232.074     181.776     351.871
  H     -230.265     182.021     355.829
  H     -230.770     182.948     354.400
  H     -229.860     181.424     354.200
  H     -228.359     176.282     360.188
  H     -230.091     176.271     360.414
  H     -229.377     177.291     359.188

 3  4  5  6  7  8  9  10  11  12  13  23  28  29  30  31  32 0
 6-311+G(2d,p)
 ****
 33  34 0
 6-311+G(2d,p)
 ****
 1  2  14  15  16  17  18  19  20  21  22  24  25  26  27 0
 3-21G
 ****
 35  36  37  38  39  40  41  42  43  44  45 0
 3-21G
 ****


