%nproc=1
%NoSave
%Mem=1900MB
#P OB98/GEN NMR

erre ene a

0 1
  C     1358.943    -373.395     638.420
  O     1360.004    -372.783     637.716
  H     1359.290    -374.282     638.942
  H     1358.541    -372.682     639.152
  H     1358.144    -373.667     637.719
  P     1360.761    -373.677     636.617
  C     1362.809    -373.865     638.193
  O     1362.338    -373.540     636.900
  C     1364.134    -373.153     638.464
  O     1365.075    -373.521     637.420
  C     1364.032    -371.614     638.482
  O     1364.511    -371.119     639.737
  C     1365.003    -371.144     637.400
  O     1365.753    -369.997     637.766
  C     1365.888    -372.383     637.163
  N     1370.001    -371.320     634.359
  C     1369.873    -371.579     635.673
  N     1368.768    -371.958     636.354
  C     1367.712    -372.095     635.506
  C     1367.727    -371.905     634.133
  C     1368.920    -371.489     633.546
  N     1369.048    -371.182     632.212
  N     1366.451    -372.140     633.612
  C     1365.714    -372.433     634.659
  N     1366.426    -372.397     635.818
  O     1360.541    -372.855     635.258
  O     1360.258    -375.085     636.498
  H     1365.098    -369.282     637.920
  H     1360.233    -373.454     634.563
  H     1370.767    -371.441     636.270
  H     1364.650    -372.628     634.642
  H     1366.741    -372.397     637.882
  H     1364.419    -370.921     636.482
  H     1363.018    -371.244     638.291
  H     1364.548    -373.517     639.405
  H     1362.972    -374.948     638.262
  H     1369.922    -370.767     631.914
  H     1368.222    -371.187     631.643
  H     1362.050    -373.568     638.937
  P     1363.386    -370.800     640.846
  C     1362.727    -368.432     639.982
  O     1363.316    -369.209     641.026
  O     1364.083    -371.271     642.227
  O     1362.087    -371.483     640.610
  H     1363.422    -371.535     642.869
  H     1362.755    -367.396     640.249
  H     1361.711    -368.737     639.840
  H     1363.274    -368.581     639.074

 6  7  8  9  10  11  12  13  14  15  25  28  32  33  34  35 0
 6-311+G(2d,p)
 ****
 36  39  40 0
 6-311+G(2d,p)
 ****
 1  2  3  4  5  16  17  18  19  20  21  22  23  24 0
 3-21G
 ****
 26  27  29  30  31  37  38  41  42  43  44  45  46  47  48 0
 3-21G
 ****


