%nproc=1
%NoSave
%Mem=1900MB
#P OB98/GEN NMR

erre ene a

0 1
  C      571.795    -154.330    -202.587
  O      572.276    -153.471    -201.561
  P      572.997    -154.126    -200.292
  C      575.474    -153.307    -200.745
  O      574.546    -154.360    -200.605
  C      576.798    -153.867    -201.282
  O      576.567    -154.641    -202.482
  C      577.815    -152.787    -201.637
  O      578.588    -152.397    -200.511
  C      578.630    -153.462    -202.723
  O      579.565    -154.389    -202.147
  C      577.521    -154.216    -203.500
  N      576.792    -153.485    -204.557
  C      577.187    -153.616    -205.887
  O      578.132    -154.304    -206.264
  N      576.445    -152.923    -206.803
  C      575.275    -152.266    -206.566
  O      574.620    -151.708    -207.441
  C      574.820    -152.282    -205.173
  C      575.588    -152.870    -204.249
  O      572.391    -155.599    -200.224
  O      572.791    -153.379    -199.009
  H      580.225    -153.869    -201.663
  H      571.870    -155.721    -199.412
  H      576.756    -152.946    -207.761
  H      573.872    -151.817    -204.946
  H      575.262    -152.886    -203.214
  H      577.927    -155.124    -203.965
  H      579.219    -152.736    -203.278
  H      577.309    -151.923    -202.075
  H      577.221    -154.542    -200.527
  H      575.639    -152.807    -199.790
  H      575.075    -152.555    -201.435
  P      577.984    -151.360    -199.454
  C      578.370    -152.887    -197.425
  O      577.409    -152.257    -198.253
  O      577.048    -150.335    -199.997
  O      579.291    -150.701    -198.794
  H      579.506    -149.847    -199.235
  H      577.860    -153.328    -196.564
  H      579.105    -152.155    -197.069
  H      578.875    -153.680    -197.981
  H      571.342    -153.744    -203.360
  H      571.070    -155.003    -202.178
  H      572.611    -154.890    -202.995

 3  4  5  6  7  8  9  10  11  12  13  23  28  29  30  31  32 0
 6-311+G(2d,p)
 ****
 33  34 0
 6-311+G(2d,p)
 ****
 1  2  14  15  16  17  18  19  20  21  22  24  25  26  27 0
 3-21G
 ****
 35  36  37  38  39  40  41  42  43  44  45 0
 3-21G
 ****


