%nproc=1
%NoSave
%Mem=1900MB
#P OB98/GEN NMR

erre ene a

0 1
  C     -365.125     -45.532     130.105
  O     -366.457     -45.117     129.786
  P     -366.977     -43.758     130.455
  C     -366.208     -44.228     132.905
  O     -367.297     -44.093     131.994
  C     -366.652     -43.835     134.315
  O     -366.903     -42.417     134.384
  C     -367.954     -44.496     134.772
  O     -367.736     -45.857     135.144
  C     -368.330     -43.575     135.940
  O     -367.555     -43.911     137.100
  C     -367.910     -42.195     135.396
  N     -371.124     -38.231     136.027
  C     -370.130     -38.740     136.820
  N     -369.330     -39.816     136.586
  C     -369.623     -40.374     135.401
  C     -370.612     -39.986     134.498
  C     -371.381     -38.858     134.846
  N     -372.370     -38.355     134.031
  N     -370.629     -40.825     133.403
  C     -369.667     -41.697     133.626
  N     -369.013     -41.465     134.809
  O     -368.425     -43.567     129.809
  O     -366.100     -42.573     130.229
  H     -367.760     -44.851     137.335
  H     -368.628     -42.615     129.682
  H     -369.960     -38.206     137.750
  H     -369.394     -42.516     132.959
  H     -367.477     -41.542     136.170
  H     -369.384     -43.654     136.207
  H     -368.717     -44.443     133.996
  H     -365.830     -44.092     135.020
  H     -365.395     -43.575     132.601
  H     -372.966     -37.646     134.424
  H     -372.662     -38.908     133.235
  H     -365.844     -45.269     132.876
  P     -368.126     -46.975     134.057
  C     -370.585     -46.408     134.555
  O     -369.603     -47.434     134.479
  O     -367.224     -48.217     134.522
  O     -367.944     -46.559     132.627
  H     -367.322     -48.362     135.471
  H     -371.543     -46.846     134.814
  H     -370.671     -45.878     133.605
  H     -370.308     -45.681     135.358
  H     -364.905     -46.447     129.596
  H     -365.041     -45.682     131.161
  H     -364.433     -44.777     129.796

 3  4  5  6  7  8  9  10  11  12  22  25  29  30  31  32 0
 6-311+G(2d,p)
 ****
 33  36  37 0
 6-311+G(2d,p)
 ****
 1  2  13  14  15  16  17  18  19  20  21  23  24  26 0
 3-21G
 ****
 27  28  34  35  38  39  40  41  42  43  44  45  46  47  48 0
 3-21G
 ****


