%nproc=1
%NoSave
%Mem=1900MB
#P OB98/GEN NMR

erre ene a

0 1
  C        3.399      60.318     115.413
  O        2.813      59.049     115.185
  P        3.289      57.838     116.128
  C        5.409      56.332     116.284
  O        4.707      57.344     115.569
  C        6.184      55.446     115.313
  O        5.273      54.739     114.448
  C        7.126      56.199     114.382
  O        8.300      56.610     115.064
  C        7.353      55.145     113.302
  O        8.310      54.175     113.753
  C        5.959      54.500     113.189
  N        3.260      53.403     108.978
  C        3.967      52.621     109.826
  N        4.676      52.990     110.912
  C        4.607      54.319     111.096
  C        3.947      55.242     110.304
  C        3.244      54.738     109.200
  N        2.528      55.539     108.334
  N        4.120      56.521     110.793
  C        4.863      56.369     111.869
  N        5.172      55.057     112.103
  O        2.298      56.651     115.725
  O        3.246      58.130     117.596
  H        9.025      54.662     114.211
  H        2.094      56.087     116.496
  H        3.958      51.557     109.603
  H        5.198      57.174     112.510
  H        6.008      53.416     113.040
  H        7.726      55.565     112.363
  H        6.622      57.073     113.952
  H        6.743      54.706     115.902
  H        4.693      55.712     116.834
  H        2.179      55.116     107.487
  H        2.632      56.542     108.419
  H        6.080      56.808     117.005
  P        8.947      58.014     114.631
  C        9.794      58.919     112.380
  O        9.423      57.766     113.117
  O       10.327      57.997     115.439
  O        8.076      59.202     114.854
  H       10.804      57.156     115.328
  H       10.144      58.605     111.395
  H       10.601      59.451     112.892
  H        8.931      59.578     112.257
  H        2.995      61.027     114.721
  H        4.458      60.251     115.278
  H        3.186      60.635     116.413

 3  4  5  6  7  8  9  10  11  12  22  25  29  30  31  32 0
 6-311+G(2d,p)
 ****
 33  36  37 0
 6-311+G(2d,p)
 ****
 1  2  13  14  15  16  17  18  19  20  21  23  24  26 0
 3-21G
 ****
 27  28  34  35  38  39  40  41  42  43  44  45  46  47  48 0
 3-21G
 ****


