%nproc=1
%NoSave
%Mem=1900MB
#P OB98/GEN NMR

erre ene a

0 1
  C      325.472     660.809     -82.360
  O      324.636     660.585     -83.475
  P      324.167     659.076     -83.767
  C      325.510     656.825     -83.948
  O      325.507     658.245     -84.016
  C      326.940     656.293     -83.983
  O      327.693     656.860     -82.903
  C      327.063     654.772     -83.823
  O      326.733     654.088     -85.031
  C      328.521     654.641     -83.393
  O      329.387     654.716     -84.547
  C      328.706     655.892     -82.508
  N      328.629     655.594     -81.071
  C      329.834     655.578     -80.388
  O      330.929     655.780     -80.925
  N      329.754     655.284     -79.050
  C      328.616     654.957     -78.363
  O      328.619     654.655     -77.170
  C      327.376     654.969     -79.145
  C      327.445     655.283     -80.446
  O      323.510     659.247     -85.225
  O      323.249     658.540     -82.720
  H      323.903     659.995     -85.712
  H      329.196     653.897     -85.075
  H      330.624     655.282     -78.521
  H      326.460     654.703     -78.654
  H      326.537     655.285     -81.053
  H      329.675     656.360     -82.719
  H      328.720     653.692     -82.889
  H      326.416     654.435     -83.009
  H      327.399     656.615     -84.936
  H      324.945     656.427     -84.818
  H      325.001     656.501     -83.041
  P      326.128     652.598     -84.854
  C      326.778     650.752     -83.133
  O      327.196     651.777     -83.996
  O      326.291     652.033     -86.352
  O      324.719     652.577     -84.337
  H      327.149     652.273     -86.764
  H      327.623     650.090     -82.926
  H      325.965     650.147     -83.582
  H      326.413     651.179     -82.194
  H      325.702     661.852     -82.290
  H      326.378     660.251     -82.476
  H      324.970     660.494     -81.469

 3  4  5  6  7  8  9  10  11  12  13  24  28  29  30  31  32 0
 6-311+G(2d,p)
 ****
 33  34 0
 6-311+G(2d,p)
 ****
 1  2  14  15  16  17  18  19  20  21  22  23  25  26  27 0
 3-21G
 ****
 35  36  37  38  39  40  41  42  43  44  45 0
 3-21G
 ****


