%nproc=1
%NoSave
%Mem=1900MB
#P OB98/GEN NMR

erre ene a

0 1
  C     -195.526     511.742    -207.581
  O     -196.639     512.592    -207.762
  P     -197.552     513.045    -206.529
  C     -196.267     515.276    -206.372
  O     -196.687     514.105    -205.677
  C     -197.100     516.488    -205.918
  O     -196.851     516.722    -204.494
  C     -196.735     517.781    -206.679
  O     -197.851     518.454    -207.269
  C     -195.968     518.580    -205.637
  O     -195.917     519.973    -205.896
  C     -196.658     518.138    -204.340
  N     -195.877     518.468    -203.146
  C     -195.973     519.765    -202.664
  O     -196.673     520.646    -203.160
  N     -195.174     520.073    -201.589
  C     -194.223     519.259    -201.042
  O     -193.475     519.625    -200.146
  C     -194.138     517.904    -201.625
  C     -194.969     517.564    -202.617
  O     -198.134     511.930    -205.720
  O     -198.654     513.989    -207.217
  H     -195.224     520.357    -205.335
  H     -198.291     514.765    -207.682
  H     -195.232     521.013    -201.227
  H     -193.384     517.242    -201.217
  H     -194.930     516.572    -203.070
  H     -197.642     518.602    -204.238
  H     -194.928     518.217    -205.637
  H     -196.075     517.566    -207.530
  H     -198.159     516.236    -206.054
  H     -196.413     515.121    -207.447
  H     -195.199     515.447    -206.202
  P     -197.778     519.429    -208.538
  C     -198.614     517.602    -210.199
  O     -197.592     518.524    -209.852
  O     -196.803     520.563    -208.415
  O     -199.268     519.980    -208.684
  H     -199.254     520.873    -209.087
  H     -198.157     516.768    -210.746
  H     -199.336     518.101    -210.857
  H     -199.123     517.216    -209.314
  H     -195.056     511.564    -208.526
  H     -195.851     510.812    -207.163
  H     -194.827     512.206    -206.917

 3  4  5  6  7  8  9  10  11  12  13  23  28  29  30  31  32 0
 6-311+G(2d,p)
 ****
 33  34 0
 6-311+G(2d,p)
 ****
 1  2  14  15  16  17  18  19  20  21  22  24  25  26  27 0
 3-21G
 ****
 35  36  37  38  39  40  41  42  43  44  45 0
 3-21G
 ****


