%nproc=1
%NoSave
%Mem=1900MB
#P OB98/GEN NMR

erre ene a

0 1
  C      270.121    -153.292    -754.814
  O      270.257    -154.433    -753.992
  H      270.940    -153.254    -755.541
  H      269.174    -153.356    -755.357
  H      270.123    -152.385    -754.206
  P      271.608    -154.554    -753.135
  C      272.078    -156.966    -753.977
  O      271.851    -156.121    -752.855
  C      271.707    -158.413    -753.630
  O      270.261    -158.534    -753.685
  C      272.312    -159.468    -754.562
  O      273.099    -160.401    -753.813
  C      271.110    -160.206    -755.132
  O      271.307    -161.620    -755.226
  C      269.988    -159.859    -754.165
  N      266.211    -162.984    -755.575
  C      267.176    -163.113    -754.633
  N      268.085    -162.199    -754.233
  C      267.920    -161.038    -754.893
  C      266.967    -160.751    -755.863
  C      266.097    -161.798    -756.218
  N      265.150    -161.678    -757.215
  N      267.116    -159.454    -756.322
  C      268.159    -158.984    -755.670
  N      268.693    -159.909    -754.814
  O      271.189    -153.976    -751.701
  O      272.786    -153.828    -753.702
  H      272.195    -161.750    -755.606
  H      271.862    -153.334    -751.400
  H      267.227    -164.080    -754.143
  H      268.606    -158.003    -755.818
  H      269.963    -160.535    -753.297
  H      270.904    -159.822    -756.137
  H      272.924    -159.038    -755.362
  H      272.005    -158.599    -752.590
  H      273.136    -156.932    -754.251
  H      264.651    -162.515    -757.480
  H      265.131    -160.837    -757.770
  H      271.484    -156.605    -754.824
  P      274.579    -160.707    -754.358
  C      274.739    -163.076    -753.275
  O      275.263    -161.749    -753.338
  O      275.367    -159.342    -754.055
  O      274.626    -161.077    -755.800
  H      276.103    -159.232    -754.685
  H      275.293    -163.645    -752.558
  H      274.821    -163.538    -754.237
  H      273.710    -163.040    -752.983

 6  7  8  9  10  11  12  13  14  15  25  28  32  33  34  35 0
 6-311+G(2d,p)
 ****
 36  39  40 0
 6-311+G(2d,p)
 ****
 1  2  3  4  5  16  17  18  19  20  21  22  23  24 0
 3-21G
 ****
 26  27  29  30  31  37  38  41  42  43  44  45  46  47  48 0
 3-21G
 ****


