%nproc=1
%NoSave
%Mem=1900MB
#P OB98/GEN NMR

erre ene a

0 1
  C      258.496    -344.960     414.454
  O      259.462    -344.341     413.599
  P      259.170    -344.383     412.030
  C      260.051    -343.184     409.894
  O      260.216    -343.417     411.282
  C      260.900    -341.982     409.459
  O      260.401    -340.747     410.032
  C      262.356    -342.072     409.901
  O      263.072    -342.996     409.106
  C      262.791    -340.625     409.742
  O      263.077    -340.328     408.361
  C      261.533    -339.854     410.190
  N      262.371    -335.792     413.207
  C      262.378    -335.954     411.865
  N      262.151    -337.060     411.130
  C      261.875    -338.101     411.936
  C      261.829    -338.106     413.322
  C      262.101    -336.889     413.966
  N      262.102    -336.746     415.330
  N      261.513    -339.365     413.798
  C      261.398    -340.114     412.711
  N      261.595    -339.390     411.565
  O      257.778    -343.605     411.890
  O      259.093    -345.777     411.467
  H      262.232    -340.438     407.863
  H      257.060    -344.242     411.685
  H      262.605    -335.049     411.288
  H      261.180    -341.177     412.704
  H      261.339    -338.978     409.556
  H      263.692    -340.374     410.320
  H      262.412    -342.372     410.963
  H      260.843    -341.902     408.369
  H      259.000    -342.992     409.664
  H      262.385    -335.855     415.720
  H      261.984    -337.568     415.912
  H      260.344    -344.093     409.354
  P      263.822    -344.203     409.849
  C      265.071    -346.293     409.015
  O      264.348    -345.130     408.645
  O      262.589    -345.050     410.428
  O      264.849    -343.790     410.845
  H      261.892    -345.164     409.751
  H      265.341    -346.840     408.102
  H      264.455    -346.934     409.649
  H      265.994    -346.010     409.534
  H      258.808    -344.863     415.473
  H      258.411    -345.997     414.204
  H      257.547    -344.483     414.324

 3  4  5  6  7  8  9  10  11  12  22  25  29  30  31  32 0
 6-311+G(2d,p)
 ****
 33  36  37 0
 6-311+G(2d,p)
 ****
 1  2  13  14  15  16  17  18  19  20  21  23  24  26 0
 3-21G
 ****
 27  28  34  35  38  39  40  41  42  43  44  45  46  47  48 0
 3-21G
 ****


