%nproc=1
%NoSave
%Mem=1900MB
#P OB98/GEN NMR

erre ene a

0 1
  C      305.474     765.480     227.805
  O      304.593     766.220     228.622
  H      306.321     765.153     228.413
  H      305.847     766.117     226.996
  H      304.984     764.599     227.384
  P      303.084     766.427     228.134
  C      303.117     768.973     227.700
  O      302.630     767.916     228.524
  C      302.740     770.347     228.257
  O      301.326     770.573     228.073
  C      303.016     770.465     229.762
  O      304.333     770.869     230.090
  C      301.996     771.516     230.186
  O      302.526     772.845     230.045
  C      300.829     771.301     229.210
  N      296.326     771.604     231.609
  C      297.225     772.608     231.321
  N      296.894     773.842     231.770
  N      298.345     772.419     230.681
  C      298.590     771.118     230.387
  C      297.778     770.025     230.636
  C      296.506     770.267     231.282
  O      295.669     769.404     231.541
  N      298.372     768.860     230.229
  C      299.572     769.229     229.822
  N      299.718     770.603     229.819
  O      302.234     765.527     229.158
  O      302.802     766.018     226.717
  H      302.828     772.956     229.127
  H      301.442     765.178     228.710
  H      295.467     771.816     232.082
  H      300.348     768.563     229.471
  H      300.445     772.253     228.830
  H      301.725     771.396     231.234
  H      296.086     774.034     232.351
  H      302.774     769.526     230.277
  H      297.610     774.574     231.753
  H      303.267     771.121     227.691
  H      302.667     768.831     226.717
  H      304.202     768.894     227.582
  P      305.336     769.888     230.851
  C      307.008     771.910     231.069
  O      306.792     770.532     230.822
  O      305.456     768.647     229.855
  O      304.902     769.467     232.218
  H      304.876     767.917     230.133
  H      308.054     772.125     231.000
  H      306.658     772.156     232.050
  H      306.476     772.490     230.344

 6  7  8  9  10  11  12  13  14  15  26  29  33  34 0
 6-311+G(2d,p)
 ****
 36  38  39  40  41 0
 6-311+G(2d,p)
 ****
 1  2  3  4  5  16  17  18  19  20  21  22  23  24  25 0
 3-21G
 ****
 27  28  30  31  32  35  37  42  43  44  45  46  47 0
 3-21G
 ****
 48  49 0
 3-21G
 ****


