%nproc=1
%NoSave
%Mem=1900MB
#P OB98/GEN NMR

erre ene a

0 1
  C      278.422     -65.135      86.202
  O      278.586     -66.314      87.001
  P      279.824     -67.276      86.678
  C      281.296     -66.720      88.748
  O      280.511     -67.685      88.067
  C      282.185     -67.398      89.795
  O      283.184     -66.493      90.316
  C      281.420     -67.915      91.006
  O      280.837     -69.187      90.758
  C      282.542     -68.050      92.026
  O      283.271     -69.272      91.792
  C      283.418     -66.833      91.704
  N      284.301     -64.657      96.186
  C      284.789     -65.836      95.657
  N      285.646     -66.536      96.436
  N      284.467     -66.290      94.474
  C      283.619     -65.477      93.804
  C      283.066     -64.287      94.219
  C      283.418     -63.805      95.537
  O      283.005     -62.775      96.062
  N      282.243     -63.757      93.260
  C      282.313     -64.612      92.257
  N      283.121     -65.684      92.544
  O      280.898     -66.272      86.038
  O      279.503     -68.403      85.754
  H      284.163     -69.141      92.169
  H      281.478     -66.758      85.424
  H      284.578     -64.357      97.106
  H      281.799     -64.500      91.311
  H      284.487     -67.046      91.818
  H      282.169     -68.095      93.051
  H      285.973     -66.221      97.334
  H      280.683     -67.180      91.352
  H      286.038     -67.387      96.051
  H      282.699     -68.240      89.310
  H      280.653     -65.980      89.234
  H      281.888     -66.163      88.018
  P      279.238     -69.301      90.811
  C      278.500     -69.572      88.337
  O      278.819     -70.205      89.558
  O      278.764     -67.826      90.403
  O      278.686     -69.715      92.130
  H      277.924     -67.613      90.848
  H      278.397     -70.336      87.562
  H      279.287     -68.874      88.043
  H      277.548     -69.036      88.430
  H      277.559     -64.597      86.533
  H      278.297     -65.414      85.177
  H      279.288     -64.515      86.300

 3  4  5  6  7  8  9  10  11  12  23  26  30  31 0
 6-311+G(2d,p)
 ****
 33  35  36  37  38 0
 6-311+G(2d,p)
 ****
 1  2  13  14  15  16  17  18  19  20  21  22  24  25 0
 3-21G
 ****
 27  28  29  32  34  39  40  41  42  43  44  45  46  47  48  49 0
 3-21G
 ****


