%nproc=1
%NoSave
%Mem=1900MB
#P OB98/GEN NMR

erre ene a

0 1
  C       20.471      89.627      57.335
  O       21.277      89.213      56.251
  H       19.507      89.965      56.948
  H       20.949      90.458      57.862
  H       20.304      88.796      58.025
  P       22.730      88.637      56.612
  C       23.685      91.012      57.065
  O       23.412      89.716      57.584
  C       25.193      91.212      56.945
  O       25.460      92.449      56.247
  C       25.918      91.331      58.281
  O       26.134      90.066      58.881
  C       27.203      92.030      57.859
  O       28.169      91.099      57.354
  C       26.725      92.952      56.730
  N       29.259      97.052      58.385
  C       29.680      95.842      57.958
  N       28.938      94.805      57.513
  C       27.632      95.121      57.529
  C       27.055      96.308      57.943
  C       27.931      97.311      58.387
  N       27.502      98.530      58.856
  N       25.679      96.235      57.855
  C       25.431      95.029      57.387
  N       26.580      94.324      57.170
  O       23.532      88.805      55.235
  O       22.753      87.229      57.105
  H       27.862      90.833      56.466
  H       23.494      87.971      54.731
  H       30.755      95.683      57.979
  H       24.444      94.622      57.198
  H       27.417      92.957      55.879
  H       27.665      92.553      58.698
  H       25.361      91.991      58.957
  H       25.608      90.389      56.349
  H       23.275      91.767      57.745
  H       23.204      91.112      56.088
  H       28.186      99.194      59.180
  H       26.509      98.693      58.962
  P       25.947      89.930      60.465
  C       28.498      89.466      60.654
  O       27.377      90.182      61.147
  O       25.698      88.363      60.671
  O       24.840      90.751      61.035
  H       24.746      88.182      60.784
  H       29.370      89.743      61.209
  H       28.644      89.700      59.620
  H       28.326      88.415      60.762

 6  7  8  9  10  11  12  13  14  15  25  28  32  33  34  35 0
 6-311+G(2d,p)
 ****
 36  37  40 0
 6-311+G(2d,p)
 ****
 1  2  3  4  5  16  17  18  19  20  21  22  23  24 0
 3-21G
 ****
 26  27  29  30  31  38  39 41  42  43  44  45  46  47  48 0
 3-21G
 ****


