%nproc=1
%NoSave
%Mem=1900MB
#P OB98/GEN NMR

erre ene a

0 1
  C      -91.325    -203.088    -283.899
  O      -90.916    -203.936    -284.955
  H      -92.220    -202.543    -284.216
  H      -90.545    -202.367    -283.650
  H      -91.577    -203.685    -283.015
  P      -89.482    -204.651    -284.832
  C      -89.060    -203.774    -287.226
  O      -88.996    -204.895    -286.346
  C      -88.640    -204.166    -288.645
  O      -87.267    -204.599    -288.654
  C      -89.431    -205.332    -289.215
  O      -90.781    -205.031    -289.501
  C      -88.521    -205.830    -290.330
  O      -88.701    -205.140    -291.564
  C      -87.117    -205.520    -289.755
  N      -86.405    -206.729    -289.363
  C      -85.472    -207.207    -290.274
  O      -85.252    -206.675    -291.365
  N      -84.817    -208.351    -289.915
  C      -85.038    -209.075    -288.780
  O      -84.447    -210.120    -288.534
  C      -86.056    -208.537    -287.865
  C      -86.685    -207.405    -288.191
  O      -89.439    -205.882    -283.979
  O      -88.516    -203.482    -284.326
  H      -89.633    -205.266    -291.827
  H      -87.674    -203.849    -283.962
  H      -84.129    -208.706    -290.561
  H      -86.264    -209.088    -286.954
  H      -87.441    -206.987    -287.534
  H      -86.508    -205.003    -290.509
  H      -88.680    -206.891    -290.533
  H      -89.458    -206.128    -288.463
  H      -88.722    -203.280    -289.287
  H      -88.372    -203.012    -286.844
  H      -90.075    -203.363    -287.226
  P      -92.012    -205.767    -288.800
  C      -93.540    -205.495    -290.883
  O      -93.369    -205.249    -289.492
  O      -91.967    -205.884    -287.309
  O      -91.873    -207.258    -289.402
  H      -92.161    -207.883    -288.709
  H      -94.481    -205.098    -291.202
  H      -93.518    -206.549    -291.064
  H      -92.750    -205.023    -291.428

 6  7  8  9  10  11  12  13  14  15  16  26  31  32  33  34  35 0
 6-311+G(2d,p)
 ****
 36  37 0
 6-311+G(2d,p)
 ****
 1  2  3  4  5  17  18  19  20  21  22  23  24  25 0
 3-21G
 ****
 27  28  29  30  38  39  40  41  42  43  44  45 0
 3-21G
 ****


