%nproc=1
%NoSave
%Mem=1900MB
#P OB98/GEN NMR

erre ene a

0 1
  C      150.835    -464.226      81.542
  O      150.129    -463.080      81.106
  H      151.643    -463.909      82.206
  H      151.268    -464.745      80.681
  H      150.169    -464.900      82.088
  P      148.787    -463.337      80.260
  C      147.450    -461.740      81.861
  O      147.850    -462.067      80.541
  C      146.350    -460.677      81.843
  O      146.935    -459.413      81.445
  C      145.207    -460.990      80.874
  O      143.987    -460.518      81.450
  C      145.544    -460.149      79.653
  O      144.395    -459.874      78.857
  C      146.196    -458.920      80.308
  N      147.057    -458.187      79.379
  C      146.458    -457.162      78.645
  O      145.257    -456.918      78.781
  N      147.215    -456.461      77.741
  C      148.452    -456.797      77.540
  N      149.142    -456.082      76.613
  C      149.113    -457.903      78.261
  C      148.368    -458.541      79.164
  O      148.094    -464.513      81.095
  O      149.017    -463.655      78.821
  H      143.676    -459.556      79.447
  H      148.113    -464.369      82.056
  H      150.142    -458.153      78.049
  H      148.776    -459.359      79.743
  H      145.427    -458.230      80.682
  H      146.269    -460.675      79.025
  H      145.123    -462.056      80.646
  H      145.976    -460.546      82.864
  H      148.644    -455.350      76.126
  H      148.304    -461.371      82.436
  H      150.089    -456.290      76.336
  H      147.086    -462.655      82.340
  P      143.030    -461.546      82.217
  C      143.228    -460.297      84.473
  O      142.358    -460.809      83.472
  O      143.616    -462.885      82.506
  O      141.788    -461.691      81.205
  H      141.525    -462.633      81.190
  H      142.650    -459.834      85.245
  H      143.886    -459.574      84.038
  H      143.803    -461.098      84.889

 6  7  8  9  10  11  12  13  14  15  16  26  30  31  32  33  35 0
 6-311+G(2d,p)
 ****
 37  38 0
 6-311+G(2d,p)
 ****
 1  2  3  4  5  17  18  19  20  21  22  23  24  25 0
 3-21G
 ****
 27  28  29  34  36  39  40  41  42  43  44  45  46 0
 3-21G
 ****


