%nproc=1
%NoSave
%Mem=1900MB
#P OB98/GEN NMR

erre ene a

0 1
  C     -345.990     -18.419      -7.074
  O     -345.781     -18.943      -5.776
  P     -346.849     -18.685      -4.602
  C     -344.952     -19.362      -2.984
  O     -345.968     -18.418      -3.286
  C     -344.037     -18.814      -1.893
  O     -343.233     -17.745      -2.432
  C     -344.766     -18.216      -0.699
  O     -345.273     -19.232       0.153
  C     -343.670     -17.342      -0.096
  O     -342.767     -18.143       0.679
  C     -342.957     -16.813      -1.360
  N     -343.370     -15.460      -1.722
  C     -342.355     -14.496      -1.783
  O     -341.180     -14.798      -1.558
  N     -342.685     -13.216      -2.142
  C     -343.924     -12.914      -2.394
  N     -344.184     -11.642      -2.812
  C     -345.029     -13.883      -2.284
  C     -344.683     -15.123      -1.953
  O     -347.893     -19.743      -4.455
  O     -347.448     -17.232      -4.914
  H     -343.253     -18.445       1.464
  H     -348.230     -17.252      -5.519
  H     -346.047     -13.577      -2.488
  H     -345.434     -15.901      -1.870
  H     -341.871     -16.828      -1.216
  H     -344.052     -16.548       0.555
  H     -345.594     -17.583      -1.036
  H     -343.362     -19.620      -1.568
  H     -343.383     -11.069      -3.044
  H     -344.362     -19.547      -3.887
  H     -345.047     -11.410      -3.292
  H     -345.415     -20.307      -2.670
  P     -346.749     -19.783      -0.150
  C     -346.894     -20.710       2.271
  O     -347.480     -19.884       1.279
  O     -346.488     -21.312      -0.572
  O     -347.491     -19.028      -1.203
  H     -346.534     -21.404      -1.541
  H     -347.368     -20.478       3.231
  H     -345.823     -20.517       2.351
  H     -347.072     -21.761       2.037
  H     -345.174     -18.698      -7.707
  H     -346.052     -17.352      -7.022
  H     -346.902     -18.811      -7.474

 3  4  5  6  7  8  9  10  11  12  13  23  27  28  29  30  32 0
 6-311+G(2d,p)
 ****
 34  35 0
 6-311+G(2d,p)
 ****
 1  2  14  15  16  17  18  19  20  21  22  24  25  26 0
 3-21G
 ****
 31  33  36  37  38  39  40  41  42  43  44  45  46 0
 3-21G
 ****


