%nproc=1
%NoSave
%Mem=1900MB
#P OB98/GEN NMR

erre ene a

0 1
  C      457.417     621.143     209.786
  O      458.101     621.105     208.548
  H      457.423     622.173     210.157
  H      457.924     620.508     210.522
  H      456.386     620.818     209.655
  P      458.306     619.663     207.876
  C      459.422     620.732     205.781
  O      459.533     619.792     206.850
  C      460.647     620.630     204.879
  O      461.856     620.848     205.656
  C      460.843     619.256     204.245
  O      459.992     619.055     203.122
  C      462.300     619.307     203.855
  O      462.504     619.960     202.592
  C      462.921     620.135     205.013
  N      463.659     619.287     205.949
  C      464.644     618.471     205.380
  O      464.889     618.443     204.167
  N      465.304     617.639     206.253
  C      465.059     617.524     207.590
  O      465.660     616.725     208.301
  C      464.004     618.393     208.129
  C      463.361     619.218     207.297
  O      457.033     619.515     206.926
  O      458.417     618.531     208.847
  H      456.400     618.883     207.316
  H      461.956     619.467     201.945
  H      466.017     617.065     205.852
  H      463.779     618.316     209.180
  H      462.566     619.861     207.665
  H      463.611     620.883     204.610
  H      462.731     618.305     203.775
  H      460.694     618.467     204.996
  H      460.586     621.401     204.105
  H      459.369     621.747     206.186
  H      458.506     620.521     205.224
  P      458.769     618.021     203.282
  C      459.150     617.040     200.861
  O      459.086     616.819     202.252
  O      457.591     618.847     202.590
  O      458.519     617.617     204.699
  H      457.932     619.471     201.925
  H      459.370     616.119     200.363
  H      459.919     617.753     200.648
  H      458.209     617.416     200.516

 6  7  8  9  10  11  12  13  14  15  16  27  31  32  33  34  35 0
 6-311+G(2d,p)
 ****
 36  37 0
 6-311+G(2d,p)
 ****
 1  2  3  4  5  17  18  19  20  21  22  23  24  25 0
 3-21G
 ****
 26  28  29  30  38  39  40  41  42  43  44  45 0
 3-21G
 ****


