%nproc=1
%NoSave
%Mem=1900MB
#P OB98/GEN NMR

erre ene a

0 1
  C     -269.820    -210.661    -120.287
  O     -270.005    -210.580    -118.889
  H     -268.775    -210.914    -120.485
  H     -270.039    -209.698    -120.756
  H     -270.455    -211.439    -120.715
  P     -271.463    -210.216    -118.329
  C     -270.426    -208.290    -116.937
  O     -271.174    -209.497    -116.918
  C     -270.317    -207.716    -115.528
  O     -271.619    -207.404    -114.987
  C     -269.691    -208.651    -114.500
  O     -268.288    -208.801    -114.642
  C     -270.068    -207.925    -113.222
  O     -269.221    -206.776    -113.050
  C     -271.524    -207.509    -113.539
  N     -272.507    -208.462    -113.025
  C     -273.274    -208.044    -111.933
  O     -273.109    -206.930    -111.438
  N     -274.195    -208.914    -111.400
  C     -274.322    -210.103    -111.899
  N     -275.244    -210.925    -111.327
  C     -273.520    -210.593    -113.036
  C     -272.644    -209.732    -113.547
  O     -272.449    -211.338    -118.287
  O     -271.940    -208.979    -119.226
  H     -269.511    -206.329    -112.233
  H     -272.845    -208.720    -118.928
  H     -273.642    -211.605    -113.396
  H     -272.013    -210.018    -114.382
  H     -271.743    -206.516    -113.126
  H     -269.962    -208.543    -112.327
  H     -270.190    -209.630    -114.505
  H     -269.764    -206.770    -115.602
  H     -275.780    -210.564    -110.548
  H     -270.926    -207.588    -117.611
  H     -275.357    -211.893    -111.602
  H     -269.416    -208.482    -117.310
  P     -267.760    -210.205    -115.221
  C     -266.114    -210.124    -113.196
  O     -266.322    -210.452    -114.562
  O     -267.438    -209.865    -116.749
  O     -268.711    -211.350    -115.074
  H     -268.172    -210.146    -117.328
  H     -265.105    -210.352    -112.924
  H     -266.785    -210.693    -112.586
  H     -266.296    -209.080    -113.048

 6  7  8  9  10  11  12  13  14  15  16  26  30  31  32  33  35 0
 6-311+G(2d,p)
 ****
 37  38 0
 6-311+G(2d,p)
 ****
 1  2  3  4  5  17  18  19  20  21  22  23  24  25 0
 3-21G
 ****
 27  28  29  34  36  39  40  41  42  43  44  45  46 0
 3-21G
 ****


