%nproc=1
%NoSave
%Mem=1900MB
#P OB98/GEN NMR

erre ene a

0 1
  C       36.244    -899.100     429.189
  O       37.059    -897.980     428.929
  H       35.661    -898.950     430.106
  H       35.554    -899.240     428.354
  H       36.861    -900.000     429.290
  P       38.132    -897.580     430.062
  C       40.030    -896.980     428.402
  O       39.138    -896.510     429.411
  C       40.435    -895.820     427.495
  O       39.288    -895.420     426.692
  C       40.965    -894.570     428.227
  O       42.278    -894.240     427.792
  C       40.029    -893.440     427.792
  O       40.696    -892.220     427.544
  C       39.378    -894.000     426.526
  N       36.700    -890.920     423.460
  C       37.842    -891.630     423.248
  N       38.445    -892.510     424.066
  C       37.735    -892.670     425.204
  C       36.549    -892.040     425.547
  C       36.033    -891.110     424.628
  N       34.899    -890.370     424.864
  N       36.124    -892.470     426.801
  C       37.063    -893.280     427.225
  N       38.072    -893.430     426.306
  O       39.020    -898.910     430.203
  O       37.537    -897.170     431.372
  H       41.520    -892.430     427.059
  H       39.128    -899.130     431.142
  H       38.330    -891.440     422.312
  H       37.098    -893.770     428.190
  H       39.999    -893.820     425.632
  H       39.275    -893.290     428.578
  H       40.946    -894.690     429.319
  H       41.205    -896.190     426.790
  H       39.527    -897.750     427.798
  H       34.682    -889.650     424.204
  H       34.454    -890.440     425.771
  H       40.906    -897.420     428.881
  P       43.433    -894.170     428.930
  C       44.124    -896.650     429.247
  O       44.437    -895.390     428.683
  O       42.640    -894.600     430.261
  O       44.055    -892.810     429.056
  H       43.070    -894.190     431.047
  H       44.888    -897.354     428.992
  H       43.184    -896.989     428.863
  H       44.063    -896.559     430.311

 6  7  8  9  10  11  12  13  14  15  25  28  32  33  34  35 0
 6-311+G(2d,p)
 ****
 36  39  40 0
 6-311+G(2d,p)
 ****
 1  2  3  4  5  16  17  18  19  20  21  22  23  24 0
 3-21G
 ****
 26  27  29  30  31  37  38  41  42  43  44  45  46  47  48 0
 3-21G
 ****


