%nproc=1
%NoSave
%Mem=1900MB
#P OB98/GEN NMR

erre ene a

0 1
  C      182.279    -421.629     326.543
  O      181.947    -421.017     325.311
  H      183.004    -422.423     326.354
  H      181.383    -422.070     326.992
  H      182.721    -420.897     327.227
  P      181.026    -419.697     325.389
  C      178.726    -420.954     325.242
  O      179.635    -420.185     326.015
  C      177.283    -420.633     325.638
  O      176.388    -421.405     324.797
  C      176.957    -420.958     327.088
  O      176.059    -419.960     327.589
  C      176.238    -422.299     327.005
  O      175.390    -422.523     328.135
  C      175.517    -422.175     325.655
  N      175.215    -423.486     325.071
  C      173.910    -423.957     325.235
  O      173.083    -423.297     325.866
  N      173.579    -425.186     324.721
  C      174.489    -425.914     324.152
  N      174.109    -427.134     323.685
  C      175.895    -425.477     324.006
  C      176.180    -424.262     324.473
  O      180.689    -419.449     323.843
  O      181.672    -418.539     326.075
  H      174.952    -423.395     328.013
  H      180.492    -420.265     323.349
  H      176.625    -426.129     323.544
  H      177.186    -423.859     324.400
  H      174.582    -421.619     325.765
  H      176.975    -423.110     326.975
  H      177.830    -421.017     327.733
  H      177.088    -419.577     325.407
  H      173.142    -427.400     323.821
  H      178.914    -422.021     325.387
  H      174.743    -427.798     323.276
  H      178.892    -420.712     324.188
  P      176.653    -418.727     328.424
  C      176.743    -419.676     330.821
  O      177.489    -419.292     329.673
  O      175.681    -417.639     328.752
  O      177.812    -418.166     327.464
  H      177.810    -417.193     327.515
  H      177.411    -420.033     331.577
  H      176.056    -420.453     330.557
  H      176.201    -418.832     331.193

 6  7  8  9  10  11  12  13  14  15  16  26  30  31  32  33  35 0
 6-311+G(2d,p)
 ****
 37  38 0
 6-311+G(2d,p)
 ****
 1  2  3  4  5  17  18  19  20  21  22  23  24  25 0
 3-21G
 ****
 27  28  29  34  36  39  40  41  42  43  44  45  46 0
 3-21G
 ****


