%nproc=1
%NoSave
%Mem=1900MB
#P OB98/GEN NMR

erre ene a

0 1
  C       82.827    -207.221    -674.444
  O       83.710    -206.143    -674.201
  H       83.152    -207.740    -675.348
  H       81.810    -206.850    -674.593
  H       82.849    -207.920    -673.605
  P       83.336    -205.179    -672.971
  C       85.728    -205.352    -671.946
  O       84.346    -205.641    -671.806
  C       86.183    -204.413    -670.828
  O       85.837    -203.047    -671.140
  C       85.534    -204.693    -669.471
  O       86.101    -205.805    -668.796
  C       85.845    -203.385    -668.766
  O       87.235    -203.357    -668.393
  C       85.547    -202.369    -669.886
  N       84.159    -201.892    -669.873
  C       83.941    -200.603    -669.371
  O       84.883    -199.926    -668.964
  N       82.658    -200.120    -669.307
  C       81.678    -200.853    -669.725
  N       80.423    -200.332    -669.635
  C       81.856    -202.212    -670.273
  C       83.106    -202.662    -670.318
  O       81.930    -205.751    -672.462
  O       83.344    -203.715    -673.259
  H       87.738    -203.661    -669.167
  H       81.677    -205.319    -671.608
  H       80.999    -202.791    -670.602
  H       83.318    -203.656    -670.707
  H       86.213    -201.500    -669.820
  H       85.268    -203.240    -667.856
  H       84.449    -204.799    -669.559
  H       87.276    -204.474    -670.769
  H       80.327    -199.419    -669.198
  H       85.882    -204.876    -672.922
  H       79.584    -200.871    -669.792
  H       86.311    -206.275    -671.905
  P       85.172    -206.569    -667.730
  C       85.600    -208.893    -668.830
  O       84.649    -207.907    -668.451
  O       83.867    -205.653    -667.663
  O       85.797    -206.768    -666.384
  H       83.481    -205.655    -666.763
  H       85.096    -209.715    -669.294
  H       86.121    -209.238    -667.962
  H       86.299    -208.468    -669.520

 6  7  8  9  10  11  12  13  14  15  16  26  30  31  32  33  35 0
 6-311+G(2d,p)
 ****
 37  38 0
 6-311+G(2d,p)
 ****
 1  2  3  4  5  17  18  19  20  21  22  23  24  25 0
 3-21G
 ****
 27  28  29  34  36  39  40  41  42  43  44  45  46 0
 3-21G
 ****


