%nproc=1
%NoSave
%Mem=1900MB
#P OB98/GEN NMR

erre ene a

0 1
  C      297.462      35.185    -265.776
  O      296.603      34.125    -266.145
  H      297.281      36.031    -266.443
  H      298.505      34.872    -265.877
  H      297.265      35.497    -264.745
  P      296.581      32.844    -265.175
  C      294.425      33.998    -264.220
  O      295.586      33.224    -263.977
  C      293.212      33.385    -263.516
  O      292.940      32.089    -264.105
  C      293.408      33.185    -262.013
  O      292.160      33.417    -261.359
  C      293.768      31.712    -261.901
  O      293.490      31.189    -260.605
  C      292.932      31.114    -263.042
  N      293.448      29.822    -263.492
  C      293.347      28.757    -262.592
  O      292.855      28.932    -261.475
  N      293.841      27.530    -262.955
  C      294.446      27.392    -264.094
  N      294.936      26.157    -264.386
  C      294.614      28.498    -265.056
  C      294.088      29.670    -264.699
  O      298.032      32.918    -264.502
  O      296.285      31.554    -265.863
  H      293.702      30.231    -260.602
  H      298.281      33.812    -264.218
  H      295.136      28.336    -265.989
  H      294.160      30.533    -265.348
  H      291.890      30.974    -262.725
  H      294.837      31.571    -262.098
  H      294.175      33.842    -261.595
  H      292.337      34.014    -263.718
  H      294.818      25.433    -263.688
  H      294.226      34.060    -265.294
  H      295.471      25.948    -265.216
  H      294.607      35.011    -263.849
  P      292.139      34.139    -259.930
  C      290.931      36.247    -260.815
  O      292.069      35.727    -260.139
  O      293.164      33.670    -258.952
  O      290.662      33.802    -259.387
  H      290.737      33.595    -258.435
  H      291.013      37.312    -260.885
  H      290.046      35.993    -260.271
  H      290.878      35.828    -261.798

 6  7  8  9  10  11  12  13  14  15  16  26  30  31  32  33  35 0
 6-311+G(2d,p)
 ****
 37  38 0
 6-311+G(2d,p)
 ****
 1  2  3  4  5  17  18  19  20  21  22  23  24  25 0
 3-21G
 ****
 27  28  29  34  36  39  40  41  42  43  44  45  46 0
 3-21G
 ****


