%nproc=1
%NoSave
%Mem=1900MB
#P OB98/GEN NMR

erre ene a

0 1
  C      202.075     472.678     541.807
  O      202.770     472.222     542.970
  P      201.996     471.311     544.037
  C      203.921     469.597     544.123
  O      202.534     469.803     543.917
  C      204.240     468.103     544.296
  O      203.755     467.643     545.587
  C      203.596     467.226     543.214
  O      204.522     466.339     542.585
  C      202.432     466.567     543.935
  O      202.020     465.352     543.327
  C      202.936     466.481     545.380
  N      201.834     466.399     546.343
  C      201.246     465.152     546.512
  O      201.554     464.164     545.849
  N      200.234     465.088     547.433
  C      199.717     466.143     548.126
  O      198.780     466.040     548.908
  C      200.338     467.448     547.857
  C      201.352     467.513     546.994
  O      200.514     471.454     544.059
  O      202.630     471.787     545.434
  H      201.309     464.955     543.882
  H      201.913     471.803     546.098
  H      199.808     464.185     547.581
  H      199.938     468.309     548.374
  H      201.819     468.462     546.767
  H      203.558     465.590     545.524
  H      201.576     467.253     543.903
  H      203.210     467.832     542.387
  H      205.329     467.998     544.276
  H      204.239     470.130     545.022
  H      204.483     470.039     543.293
  P      205.150     466.566     541.132
  C      207.671     467.120     541.383
  O      206.352     467.616     541.261
  O      204.177     466.860     540.042
  O      205.900     465.180     540.842
  H      205.770     464.933     539.908
  H      208.296     467.900     541.823
  H      208.058     466.875     540.393
  H      207.705     466.234     542.024
  H      202.734     473.269     541.206
  H      201.235     473.271     542.103
  H      201.736     471.836     541.241

 3  4  5  6  7  8  9  10  11  12  13  23  28  29  30  31  32 0
 6-311+G(2d,p)
 ****
 33  34 0
 6-311+G(2d,p)
 ****
 1  2  14  15  16  17  18  19  20  21  22  24  25  26  27 0
 3-21G
 ****
 35  36  37  38  39  40  41  42  43  44  45 0
 3-21G
 ****


