%nproc=1
%NoSave
%Mem=1900MB
#P OB98/GEN NMR

erre ene a

0 1
  C      -16.898    -150.309     109.098
  O      -16.077    -150.137     110.239
  P      -15.398    -148.719     110.567
  C      -13.026    -149.729     110.737
  O      -13.892    -148.848     110.034
  C      -12.073    -150.409     109.757
  O      -12.831    -151.060     108.718
  C      -11.119    -149.460     109.042
  O      -10.059    -149.062     109.897
  C      -10.712    -150.311     107.843
  O       -9.708    -151.264     108.225
  C      -12.027    -151.046     107.514
  N      -12.756    -150.439     106.404
  C      -12.949    -151.240     105.273
  O      -12.532    -152.398     105.237
  N      -13.649    -150.721     104.212
  C      -14.093    -149.502     104.262
  N      -14.838    -149.066     103.211
  C      -13.862    -148.607     105.409
  C      -13.198    -149.134     106.435
  O      -15.521    -148.278     111.986
  O      -16.052    -147.710     109.517
  H       -8.904    -150.755     108.444
  H      -16.890    -147.295     109.836
  H      -14.241    -147.595     105.398
  H      -13.004    -148.550     107.323
  H      -11.827    -152.097     107.271
  H      -10.319    -149.727     107.006
  H      -11.656    -148.570     108.694
  H      -11.510    -151.180     110.304
  H      -15.118    -149.764     102.532
  H      -13.633    -150.493     111.234
  H      -15.448    -148.262     103.294
  H      -12.476    -149.165     111.496
  P      -10.121    -147.582     110.509
  C       -7.638    -147.200     109.858
  O       -8.977    -146.746     109.752
  O       -9.558    -147.774     111.995
  O      -11.479    -146.963     110.494
  H      -10.294    -147.795     112.634
  H       -7.034    -146.679     109.111
  H       -7.579    -148.277     109.671
  H       -7.245    -146.971     110.851
  H      -17.250    -151.319     109.061
  H      -16.332    -150.096     108.216
  H      -17.733    -149.642     109.156

 3  4  5  6  7  8  9  10  11  12  13  23  27  28  29  30  32 0
 6-311+G(2d,p)
 ****
 34  35 0
 6-311+G(2d,p)
 ****
 1  2  14  15  16  17  18  19  20  21  22  24  25  26 0
 3-21G
 ****
 31  33  36  37  38  39  40  41  42  43  44  45  46 0
 3-21G
 ****


