%nproc=1
%NoSave
%Mem=1900MB
#P OB98/GEN NMR

erre ene a

0 1
  C       41.942      -9.073     873.497
  O       41.986      -7.817     872.809
  P       43.224      -7.587     871.807
  C       41.702      -7.353     869.704
  O       42.758      -8.067     870.351
  C       41.225      -8.107     868.460
  O       40.699      -9.399     868.810
  C       40.102      -7.415     867.711
  O       40.589      -6.367     866.879
  C       39.558      -8.557     866.865
  O       40.365      -8.715     865.685
  C       39.731      -9.768     867.796
  N       35.324     -12.225     867.286
  C       36.339     -12.029     866.374
  N       36.168     -12.590     865.157
  N       37.424     -11.351     866.624
  C       37.469     -10.864     867.892
  C       36.529     -10.985     868.889
  C       35.318     -11.720     868.587
  O       34.372     -11.897     869.351
  N       36.938     -10.377     870.046
  C       38.140      -9.903     869.762
  N       38.498     -10.161     868.461
  O       44.262      -8.730     872.253
  O       43.825      -6.224     871.883
  H       41.223      -9.086     865.973
  H       45.174      -8.450     872.038
  H       34.504     -12.756     867.039
  H       38.778      -9.372     870.452
  H       40.128     -10.643     867.266
  H       38.532      -8.388     866.527
  H       35.391     -13.189     864.913
  H       39.324      -7.057     868.401
  H       36.927     -12.490     864.484
  H       42.091      -8.246     867.793
  H       42.057      -6.360     869.412
  H       40.884      -7.207     870.416
  P       40.571      -4.878     867.489
  C       43.154      -4.711     867.664
  O       41.919      -4.748     868.349
  O       39.409      -4.954     868.591
  O       40.326      -3.805     866.489
  H       38.998      -4.078     868.706
  H       43.102      -4.067     866.779
  H       43.440      -5.727     867.363
  H       43.921      -4.317     868.338
  H       41.079      -9.104     874.128
  H       42.824      -9.184     874.093
  H       41.891      -9.869     872.784

 3  4  5  6  7  8  9  10  11  12  23  26  30  31  33  0
 6-311+G(2d,p)
 ****
 35  36  37  38 0
 6-311+G(2d,p)
 ****
 1  2  13  14  15  16  17  18  19  20  21  22  24  25  27  28  29 0
 3-21G
 ****
 32  34  39  40  41  42  43  44  45  46  47  48  49 0
 3-21G
 ****


