%nproc=1
%NoSave
%Mem=1900MB
#P OB98/GEN NMR

erre ene a

0 1
  C       37.373     -28.883      88.628
  O       36.665     -29.463      87.552
  H       37.821     -27.945      88.290
  H       38.171     -29.554      88.959
  H       36.696     -28.671      89.460
  P       35.893     -30.837      87.854
  C       35.046     -29.709      90.039
  O       35.622     -30.861      89.436
  C       33.540     -29.907      90.193
  O       33.290     -30.992      91.115
  C       32.807     -28.701      90.772
  O       32.576     -27.703      89.794
  C       31.531     -29.352      91.289
  O       30.561     -29.513      90.246
  C       32.026     -30.726      91.761
  N       30.689     -33.289      95.958
  C       30.434     -33.503      94.649
  N       30.845     -32.780      93.586
  C       31.603     -31.745      93.985
  C       31.941     -31.396      95.281
  C       31.452     -32.226      96.303
  N       31.682     -31.987      97.637
  N       32.697     -30.241      95.290
  C       32.819     -29.903      94.022
  N       32.179     -30.785      93.199
  O       37.034     -31.941      87.647
  O       34.699     -31.097      86.998
  H       30.947     -30.137      89.601
  H       36.988     -32.292      86.738
  H       29.815     -34.368      94.426
  H       33.349     -29.031      93.656
  H       31.341     -31.533      91.475
  H       31.068     -28.750      92.072
  H       33.365     -28.290      91.622
  H       33.123     -30.185      89.218
  H       35.231     -28.837      89.402
  H       35.516     -29.547      91.014
  H       31.279     -32.612      98.318
  H       32.159     -31.138      97.909
  P       32.438     -26.182      90.273
  C       34.970     -25.669      89.982
  O       33.859     -25.726      90.862
  O       31.505     -26.288      91.569
  O       31.869     -25.255      89.250
  H       30.586     -26.051      91.347
  H       35.837     -25.350      90.522
  H       34.766     -24.975      89.194
  H       35.146     -26.639      89.566

 6  7  8  9  10  11  12  13  14  15  25  28  32  33  34  35 0
 6-311+G(2d,p)
 ****
 36  37  40 0
 6-311+G(2d,p)
 ****
 1  2  3  4  5  16  17  18  19  20  21  22  23  24 0
 3-21G
 ****
 26  27  29  30  31  38  39 41  42  43  44  45  46  47  48 0
 3-21G
 ****


