%nproc=1
%NoSave
%Mem=1900MB
#P OB98/GEN NMR

erre ene a

0 1
  C     -108.768    -146.787     349.611
  O     -107.470    -147.012     350.119
  H     -108.682    -146.269     348.652
  H     -109.327    -146.153     350.302
  H     -109.305    -147.726     349.456
  P     -107.269    -148.126     351.250
  C     -107.924    -146.777     353.353
  O     -108.291    -147.812     352.451
  C     -108.307    -147.118     354.793
  O     -109.744    -147.224     354.902
  C     -107.730    -148.462     355.250
  O     -106.419    -148.388     355.787
  C     -108.735    -148.891     356.316
  O     -108.379    -148.369     357.608
  C     -110.054    -148.274     355.832
  N     -113.416    -152.068     356.495
  C     -112.594    -151.463     357.430
  N     -112.657    -151.965     358.683
  N     -111.783    -150.480     357.143
  C     -111.757    -150.154     355.832
  C     -112.510    -150.696     354.811
  C     -113.458    -151.739     355.148
  O     -114.221    -152.294     354.360
  N     -112.186    -150.145     353.596
  C     -111.178    -149.339     353.871
  N     -110.939    -149.252     355.225
  O     -105.850    -147.743     351.899
  O     -107.261    -149.545     350.764
  H     -109.164    -148.433     358.185
  H     -105.407    -148.553     352.209
  H     -114.040    -152.802     356.780
  H     -110.624    -148.760     353.141
  H     -110.605    -147.812     356.660
  H     -108.762    -149.980     356.414
  H     -113.198    -152.774     358.938
  H     -107.763    -149.195     354.437
  H     -111.937    -151.678     359.354
  H     -107.993    -146.301     355.458
  H     -108.454    -145.879     353.028
  H     -106.852    -146.572     353.279
  P     -105.346    -149.534     355.493
  C     -104.743    -150.084     357.992
  O     -105.286    -150.505     356.757
  O     -103.954    -148.754     355.564
  O     -105.516    -150.259     354.200
  H     -103.636    -148.528     354.667
  H     -104.801    -150.885     358.699
  H     -105.297    -149.245     358.358
  H     -103.720    -149.803     357.854

 6  7  8  9  10  11  12  13  14  15  26  29  33  34 0
 6-311+G(2d,p)
 ****
 36  38  39  40  41 0
 6-311+G(2d,p)
 ****
 1  2  3  4  5  16  17  18  19  20  21  22  23  24  25 0
 3-21G
 ****
 27  28  30  31  32  35  37  42  43  44  45  46  47 0
 3-21G
 ****
 48  49 0
 3-21G
 ****


