%nproc=1
%NoSave
%Mem=1900MB
#P OB98/GEN NMR

erre ene a

0 1
  C     -892.730     265.659     -98.262
  O     -893.370     266.386     -97.207
  P     -894.770     265.994     -96.552
  C     -893.920     267.438     -94.541
  O     -895.020     266.978     -95.303
  C     -894.060     268.925     -94.131
  O     -894.010     269.773     -95.300
  C     -895.440     269.156     -93.482
  O     -895.630     268.885     -92.109
  C     -895.790     270.595     -93.888
  O     -895.410     271.542     -92.888
  C     -895.000     270.805     -95.179
  N     -898.930     273.062     -97.555
  C     -898.450     273.277     -96.274
  N     -899.120     274.177     -95.512
  N     -897.400     272.654     -95.782
  C     -896.880     271.745     -96.612
  C     -897.280     271.418     -97.893
  C     -898.400     272.145     -98.458
  O     -898.860     271.999     -99.587
  N     -896.500     270.405     -98.433
  C     -895.670     270.094     -97.460
  N     -895.830     270.872     -96.340
  O     -895.000     264.529     -96.327
  O     -895.850     266.504     -97.658
  H     -895.650     272.429     -93.200
  H     -896.590     265.885     -97.612
  H     -899.730     273.576     -97.902
  H     -894.900     269.319     -97.530
  H     -894.430     271.754     -95.120
  H     -896.870     270.692     -94.009
  H     -900.000     274.597     -95.794
  H     -896.150     268.534     -94.008
  H     -898.900     274.169     -94.523
  H     -893.230     269.229     -93.496
  H     -893.020     267.302     -95.146
  H     -893.790     266.825     -93.649
  P     -896.560     267.704     -91.520
  C     -895.300     267.918     -89.274
  O     -896.580     267.861     -89.898
  O     -895.660     266.373     -91.718
  O     -897.890     267.549     -92.156
  H     -896.210     265.587     -91.622
  H     -895.430     267.721     -88.190
  H     -894.880     268.927     -89.380
  H     -894.600     267.187     -89.691
  H     -891.805     266.135     -98.513
  H     -893.368     265.642     -99.121
  H     -892.539     264.657     -97.940

 3  4  5  6  7  8  9  10  11  12  23  26  30  31 0
 6-311+G(2d,p)
 ****
 33  35  36  37  38 0
 6-311+G(2d,p)
 ****
 1  2  13  14  15  16  17  18  19  20  21  22  24  25 0
 3-21G
 ****
 27  28  29  32  34  39  40  41  42  43  44  45  46  47  48  49 0
 3-21G
 ****


