%nproc=1
%NoSave
%Mem=1900MB
#P OB98/GEN NMR

erre ene a

0 1
  C     -360.934     579.709    -369.951
  O     -360.866     580.317    -371.232
  P     -360.666     579.450    -372.572
  C     -361.728     580.937    -374.398
  O     -360.535     580.519    -373.758
  C     -361.501     582.280    -375.118
  O     -361.297     583.307    -374.125
  C     -360.291     582.293    -376.060
  O     -360.625     583.130    -377.179
  C     -359.211     582.932    -375.219
  O     -358.171     583.499    -375.987
  C     -360.035     583.955    -374.413
  N     -359.369     584.379    -373.185
  C     -358.454     585.428    -373.295
  O     -358.204     585.960    -374.380
  N     -357.830     585.879    -372.151
  C     -358.047     585.268    -371.022
  N     -357.453     585.772    -369.902
  C     -358.927     584.084    -370.898
  C     -359.558     583.720    -371.997
  O     -361.691     578.393    -372.786
  O     -359.171     578.892    -372.459
  H     -357.807     582.800    -376.579
  H     -359.104     578.060    -371.931
  H     -359.041     583.597    -369.934
  H     -360.244     582.885    -371.997
  H     -360.264     584.833    -375.044
  H     -358.763     582.179    -374.551
  H     -360.030     581.296    -376.425
  H     -362.414     582.524    -375.668
  H     -356.992     586.677    -370.000
  H     -362.501     581.065    -373.638
  H     -357.819     585.570    -368.976
  H     -362.063     580.161    -375.107
  P     -360.545     582.497    -378.652
  C     -362.021     584.343    -379.753
  O     -360.758     583.689    -379.709
  O     -361.948     581.719    -378.753
  O     -359.416     581.556    -378.923
  H     -361.859     580.988    -379.392
  H     -361.984     585.129    -380.510
  H     -362.236     584.814    -378.784
  H     -362.806     583.635    -380.006
  H     -361.069     580.464    -369.205
  H     -360.026     579.177    -369.760
  H     -361.759     579.028    -369.923

 3  4  5  6  7  8  9  10  11  12  13  23  27  28  29  30  32 0
 6-311+G(2d,p)
 ****
 34  35 0
 6-311+G(2d,p)
 ****
 1  2  14  15  16  17  18  19  20  21  22  24  25  26 0
 3-21G
 ****
 31  33  36  37  38  39  40  41  42  43  44  45  46 0
 3-21G
 ****


