%nproc=1
%NoSave
%Mem=1900MB
#P OB98/GEN NMR

erre ene a

0 1
  C     -895.689     180.930     124.205
  O     -896.949     181.571     124.198
  H     -895.284     180.959     125.217
  H     -895.002     181.452     123.531
  H     -895.795     179.885     123.892
  P     -897.720     181.618     122.792
  C     -899.784     180.275     123.662
  O     -899.282     181.497     123.143
  C     -900.957     180.538     124.615
  O     -900.454     181.222     125.795
  C     -902.056     181.433     124.016
  O     -903.304     181.081     124.630
  C     -901.620     182.810     124.494
  O     -902.663     183.753     124.330
  C     -901.201     182.462     125.916
  N     -901.020     187.313     127.518
  C     -902.017     186.580     126.990
  N     -902.000     185.293     126.601
  C     -900.787     184.749     126.820
  C     -899.677     185.367     127.361
  C     -899.820     186.718     127.722
  N     -898.797     187.478     128.250
  N     -898.609     184.486     127.430
  C     -899.078     183.354     126.942
  N     -900.381     183.467     126.557
  O     -897.370     180.204     122.130
  O     -897.364     182.757     121.901
  H     -902.885     183.870     123.384
  H     -896.606     180.298     121.529
  H     -902.973     187.099     126.864
  H     -898.508     182.432     126.839
  H     -902.063     182.268     126.565
  H     -900.771     183.179     123.911
  H     -902.142     181.345     122.922
  H     -901.367     179.576     124.950
  H     -898.966     179.773     124.209
  H     -900.113     179.633     122.839
  H     -898.972     188.443     128.464
  H     -897.892     187.051     128.390
  P     -904.605     180.885     123.700
  C     -905.263     178.416     124.270
  O     -905.567     179.798     124.388
  O     -904.011     180.061     122.460
  O     -905.263     182.139     123.238
  H     -904.536     180.245     121.662
  H     -906.005     177.842     124.785
  H     -904.302     178.224     124.700
  H     -905.253     178.140     123.236

 6  7  8  9  10  11  12  13  14  15  25  28  32  33  34  35 0
 6-311+G(2d,p)
 ****
 36  37  40 0
 6-311+G(2d,p)
 ****
 1  2  3  4  5  16  17  18  19  20  21  22  23  24 0
 3-21G
 ****
 26  27  29  30  31  38  39 41  42  43  44  45  46  47  48 0
 3-21G
 ****


