%nproc=1
%NoSave
%Mem=1900MB
#P OB98/GEN NMR

erre ene a

0 1
  C      253.837     542.831    -215.903
  O      252.568     542.196    -215.854
  P      251.449     542.690    -216.896
  C      250.490     540.656    -218.231
  O      251.515     541.657    -218.137
  C      251.109     539.311    -218.595
  O      252.212     539.012    -217.718
  C      250.139     538.135    -218.458
  O      249.250     538.087    -219.556
  C      251.113     536.959    -218.395
  O      251.450     536.498    -219.712
  C      252.344     537.567    -217.693
  N      252.517     537.084    -216.316
  C      253.680     536.348    -216.075
  O      254.493     536.160    -216.992
  N      253.892     535.852    -214.813
  C      253.009     536.065    -213.887
  N      253.274     535.550    -212.657
  C      251.757     536.803    -214.113
  C      251.557     537.268    -215.341
  O      252.078     544.018    -217.502
  O      250.097     542.899    -216.304
  H      252.129     537.119    -220.044
  H      251.378     544.626    -217.817
  H      251.044     536.932    -213.294
  H      250.668     537.820    -215.599
  H      253.272     537.331    -218.237
  H      250.683     536.099    -217.869
  H      249.586     538.195    -217.503
  H      251.501     539.377    -219.627
  H      254.146     535.036    -212.529
  H      249.783     540.945    -219.011
  H      252.666     535.665    -211.860
  H      249.959     540.601    -217.280
  P      247.741     537.648    -219.268
  C      246.738     539.537    -220.694
  O      246.893     539.013    -219.389
  O      247.747     537.413    -217.685
  O      247.208     536.473    -220.030
  H      246.889     537.035    -217.399
  H      246.014     540.369    -220.659
  H      246.362     538.784    -221.381
  H      247.689     539.938    -221.058
  H      254.478     542.405    -215.159
  H      253.719     543.878    -215.716
  H      254.270     542.688    -216.871

 3  4  5  6  7  8  9  10  11  12  13  21  23  27  28  29  30  32 0
 6-311+G(2d,p)
 ****
 34  35 0
 6-311+G(2d,p)
 ****
 1  2  14  15  16  17  18  19  20  22  24  25  26 0
 3-21G
 ****
 31  33  36  37  38  39  40  41  42  43  44  45  46 0
 3-21G
 ****


