%nproc=1
%NoSave
%Mem=1900MB
#P OB98/GEN NMR

erre ene a

0 1
  C     -100.747     233.738     557.942
  O      -99.848     234.620     557.289
  P      -99.243     235.844     558.126
  C     -100.256     237.951     559.285
  O     -100.396     236.926     558.305
  C     -100.465     239.332     558.625
  O     -101.826     239.473     558.174
  C     -100.224     240.498     559.587
  O      -98.829     240.739     559.738
  C     -100.969     241.617     558.882
  O     -100.158     242.212     557.846
  C     -102.169     240.875     558.267
  N     -103.414     241.101     559.001
  C     -104.111     242.244     558.703
  O     -103.725     243.071     557.854
  N     -105.266     242.452     559.394
  C     -105.748     241.665     560.408
  O     -106.761     241.940     561.042
  C     -104.947     240.466     560.715
  C     -103.834     240.235     560.031
  O      -98.218     236.535     557.135
  O      -98.598     235.441     559.415
  H     -100.737     242.848     557.372
  H      -97.427     236.868     557.624
  H     -105.808     243.264     559.176
  H     -105.308     239.821     561.503
  H     -103.208     239.375     560.237
  H     -102.327     241.211     557.229
  H     -101.240     242.422     559.562
  H     -100.706     240.289     560.546
  H      -99.800     239.399     557.752
  H      -99.260     237.907     559.715
  H     -101.005     237.779     560.080
  P      -98.375     241.484     561.098
  C      -98.252     244.012     561.784
  O      -98.647     243.062     560.811
  O      -96.792     241.304     561.040
  O      -99.004     240.902     562.319
  H      -96.468     241.308     560.116
  H      -97.323     243.719     562.285
  H      -99.045     244.137     562.513
  H      -98.090     244.965     561.276
  H     -101.062     232.978     557.257
  H     -101.600     234.286     558.283
  H     -100.257     233.284     558.778

 3  4  5  6  7  8  9  10  11  12  13  23  28  29  30  31  32 0
 6-311+G(2d,p)
 ****
 33  34 0
 6-311+G(2d,p)
 ****
 1  2  14  15  16  17  18  19  20  21  22  24  25  26 0
 3-21G
 ****
 27  35  36  37  38  39  40  41  42  43  44  45 0
 3-21G
 ****


