%nproc=1
%NoSave
%Mem=1900MB
#P OB98/GEN NMR

erre ene a

0 1
  C     -194.584    -426.414     393.586
  O     -194.840    -425.919     394.885
  H     -193.807    -427.186     393.650
  H     -194.218    -425.607     392.936
  H     -195.484    -426.857     393.163
  P     -195.941    -424.767     395.055
  C     -196.560    -422.714     393.603
  O     -195.527    -423.612     394.018
  C     -196.020    -421.291     393.568
  O     -194.805    -421.223     392.797
  C     -196.989    -420.288     392.935
  O     -197.968    -419.886     393.879
  C     -196.019    -419.169     392.570
  O     -195.673    -418.425     393.750
  C     -194.807    -419.974     392.063
  N     -193.676    -418.230     387.435
  C     -193.579    -417.610     388.665
  N     -193.147    -416.328     388.658
  N     -193.877    -418.183     389.803
  C     -194.356    -419.447     389.647
  C     -194.528    -420.163     388.481
  C     -194.130    -419.531     387.232
  O     -194.186    -420.053     386.126
  N     -195.098    -421.380     388.723
  C     -195.242    -421.424     390.031
  N     -194.827    -420.268     390.640
  O     -196.176    -424.271     396.446
  O     -197.262    -425.391     394.406
  H     -196.415    -417.815     393.928
  H     -197.809    -425.834     395.076
  H     -193.446    -417.732     386.594
  H     -195.639    -422.262     390.586
  H     -193.862    -419.465     392.280
  H     -196.434    -418.466     391.847
  H     -193.179    -415.770     387.816
  H     -197.441    -420.676     392.020
  H     -193.113    -415.841     389.540
  H     -195.770    -420.995     394.598
  H     -197.382    -422.806     394.324
  H     -196.925    -423.001     392.612
  P     -199.532    -419.881     393.501
  C     -200.874    -418.867     391.536
  O     -199.659    -418.849     392.276
  O     -200.454    -419.621     394.636
  O     -199.783    -421.292     392.785
  H     -200.012    -422.020     393.419
  H     -200.827    -418.137     390.755
  H     -201.692    -418.640     392.188
  H     -201.017    -419.838     391.109

 6  7  8  9  10  11  12  13  14  15  26  29  33  34 0
 6-311+G(2d,p)
 ****
 36  38  39  40  41 0
 6-311+G(2d,p)
 ****
 1  2  3  4  5  16  17  18  19  20  21  22  23  24  25 0
 3-21G
 ****
 27  28  30  31  32  35  37  42  43  44  45  46  47 0
 3-21G
 ****
 48  49 0
 3-21G
 ****


