%nproc=1
%NoSave
%Mem=1900MB
#P OB98/GEN NMR

erre ene a

0 1
  C      -56.352     -47.750      15.279
  O      -55.577     -48.928      15.140
  P      -55.453     -49.916      16.398
  C      -53.242     -48.752      17.208
  O      -54.570     -49.148      17.495
  C      -52.419     -48.677      18.498
  O      -53.055     -47.740      19.409
  C      -52.277     -50.013      19.238
  O      -50.972     -50.032      19.832
  C      -53.349     -49.919      20.311
  O      -53.105     -50.786      21.406
  C      -53.277     -48.428      20.655
  N      -54.484     -47.924      21.312
  C      -54.395     -47.571      22.655
  O      -53.370     -47.678      23.324
  N      -55.553     -47.108      23.225
  C      -56.773     -47.028      22.621
  O      -57.781     -46.622      23.186
  C      -56.817     -47.460      21.217
  C      -55.689     -47.870      20.635
  O      -54.470     -51.034      15.817
  O      -56.764     -50.424      16.893
  H      -53.796     -50.673      15.217
  H      -53.879     -50.750      21.997
  H      -55.502     -46.811      24.189
  H      -57.772     -47.427      20.707
  H      -55.696     -48.195      19.602
  H      -52.405     -48.232      21.290
  H      -54.321     -50.185      19.877
  H      -52.397     -50.875      18.576
  H      -51.431     -48.269      18.251
  H      -53.251     -47.767      16.734
  H      -52.797     -49.461      16.502
  P      -50.370     -51.452      20.295
  C      -51.328     -51.095      22.705
  O      -51.203     -51.930      21.576
  O      -48.977     -50.974      20.933
  O      -50.192     -52.448      19.197
  H      -49.080     -50.226      21.546
  H      -52.178     -51.436      23.302
  H      -51.502     -50.055      22.415
  H      -50.423     -51.158      23.313
  H      -56.336     -47.202      14.360
  H      -55.944     -47.145      16.062
  H      -57.361     -48.013      15.520

 3  4  5  6  7  8  9  10  11  12  13  24  28  29  30  31  32 0
 6-311+G(2d,p)
 ****
 33  34 0
 6-311+G(2d,p)
 ****
 1  2  14  15  16  17  18  19  20  21  22  23  25  26  27 0
 3-21G
 ****
 35  36  37  38  39  40  41  42  43  44  45 0
 3-21G
 ****


