%nproc=1
%NoSave
%Mem=1900MB
#P OB98/GEN NMR

erre ene a

0 1
  C      215.435    -645.405     492.427
  O      214.868    -644.630     491.394
  H      216.508    -645.507     492.239
  H      214.985    -646.401     492.435
  H      215.302    -644.922     493.399
  P      213.364    -644.086     491.554
  C      212.327    -646.046     490.224
  O      212.415    -645.381     491.486
  C      211.269    -647.151     490.292
  O      210.995    -647.594     488.921
  C      211.709    -648.387     491.109
  O      210.560    -648.937     491.755
  C      212.193    -649.321     490.009
  O      212.231    -650.653     490.435
  C      211.159    -649.026     488.913
  N      211.608    -649.524     487.614
  C      210.917    -650.602     487.080
  O      209.967    -651.148     487.637
  N      211.394    -651.102     485.897
  C      212.537    -650.699     485.270
  O      212.965    -651.229     484.252
  C      213.267    -649.587     485.909
  C      212.768    -649.062     487.031
  O      212.974    -642.966     490.652
  O      213.264    -643.685     493.106
  H      211.344    -650.924     490.749
  H      212.537    -643.048     493.249
  H      210.895    -651.874     485.491
  H      214.188    -649.258     485.447
  H      213.294    -648.253     487.545
  H      210.185    -649.483     489.154
  H      213.206    -649.034     489.685
  H      212.488    -648.152     491.843
  H      210.338    -646.727     490.684
  H      213.310    -646.479     490.007
  H      212.065    -645.321     489.445
  P      210.097    -648.446     493.217
  C      211.072    -650.321     494.680
  O      211.144    -648.945     494.347
  O      208.658    -648.748     493.546
  O      210.317    -646.852     493.189
  H      209.541    -646.412     493.569
  H      211.801    -650.545     495.431
  H      211.266    -650.910     493.808
  H      210.095    -650.547     495.053

 6  7  8  9  10  11  12  13  14  15  16  26  31  32  33  34  35 0
 6-311+G(2d,p)
 ****
 36  37 0
 6-311+G(2d,p)
 ****
 1  2  3  4  5  17  18  19  20  21  22  23  24  25 0
 3-21G
 ****
 27  28  29  30  38  39  40  41  42  43  44  45 0
 3-21G
 ****


