%nproc=1
%NoSave
%Mem=1900MB
#P OB98/GEN NMR

erre ene a

0 1
  C      -62.523     237.989      63.802
  O      -62.442     239.203      64.525
  H      -63.259     237.342      64.283
  H      -61.550     237.490      63.824
  H      -62.827     238.168      62.766
  P      -61.734     240.445      63.797
  C      -59.295     240.077      64.614
  O      -60.208     240.011      63.527
  C      -58.139     239.106      64.397
  O      -57.321     239.592      63.289
  C      -57.216     238.943      65.619
  O      -56.774     237.578      65.689
  C      -56.021     239.808      65.255
  O      -54.841     239.420      65.949
  C      -55.956     239.582      63.746
  N      -52.090     240.220      60.606
  C      -52.804     239.082      60.934
  N      -52.386     237.919      60.392
  N      -53.835     239.085      61.733
  C      -54.158     240.318      62.196
  C      -53.536     241.518      61.950
  C      -52.379     241.500      61.077
  O      -51.697     242.471      60.763
  N      -54.131     242.534      62.657
  C      -55.098     241.945      63.339
  N      -55.154     240.602      63.095
  O      -61.617     241.520      64.977
  O      -62.462     240.993      62.613
  H      -55.022     239.466      66.908
  H      -62.377     242.131      64.945
  H      -51.294     240.162      59.998
  H      -55.764     242.441      64.034
  H      -55.513     238.612      63.485
  H      -56.233     240.859      65.488
  H      -51.620     237.842      59.744
  H      -57.676     239.232      66.569
  H      -52.924     237.081      60.592
  H      -58.546     238.132      64.091
  H      -59.818     239.811      65.540
  H      -58.921     241.103      64.708
  P      -57.622     236.558      66.590
  C      -56.055     236.932      68.633
  O      -57.386     236.919      68.132
  O      -56.838     235.175      66.407
  O      -59.056     236.433      66.175
  H      -57.473     234.432      66.417
  H      -56.067     237.189      69.672
  H      -55.478     237.654      68.094
  H      -55.618     235.963      68.511

 6  7  8  9  10  11  12  13  14  15  26  29  33  34 0
 6-311+G(2d,p)
 ****
 36  38  39  40  41 0
 6-311+G(2d,p)
 ****
 1  2  3  4  5  16  17  18  19  20  21  22  23  24  25 0
 3-21G
 ****
 27  28  30  31  32  35  37  42  43  44  45  46  47 0
 3-21G
 ****
 48  49 0
 3-21G
 ****


