%nproc=1
%NoSave
%Mem=1900MB
#P OB98/GEN NMR

erre ene a

0 1
  C     -336.447     661.885     427.092
  O     -336.927     660.586     427.373
  P     -338.031     660.362     428.516
  C     -340.016     660.377     426.874
  O     -339.417     661.003     428.002
  C     -341.538     660.413     426.987
  O     -341.995     659.579     428.081
  C     -342.104     661.795     427.287
  O     -342.041     662.654     426.159
  C     -343.513     661.446     427.747
  O     -344.373     661.205     426.623
  C     -343.263     660.132     428.523
  N     -343.285     660.323     429.964
  C     -344.515     660.713     430.511
  O     -345.474     660.952     429.784
  N     -344.610     660.826     431.878
  C     -343.553     660.694     432.615
  N     -343.720     660.753     433.962
  C     -342.202     660.441     432.060
  C     -342.153     660.249     430.744
  O     -337.622     660.778     429.888
  O     -338.333     658.789     428.465
  H     -338.270     658.429     429.369
  H     -344.448     662.049     426.143
  H     -341.347     660.404     432.713
  H     -341.211     660.034     430.243
  H     -344.020     659.380     428.254
  H     -343.966     662.239     428.339
  H     -341.550     662.249     428.120
  H     -341.961     660.027     426.052
  H     -344.661     660.913     434.307
  H     -339.681     659.331     426.835
  H     -343.057     660.351     434.620
  H     -339.689     660.882     425.961
  P     -342.202     664.227     426.425
  C     -339.714     664.879     426.702
  O     -340.969     664.691     427.333
  O     -343.459     664.297     427.426
  O     -342.439     665.048     425.202
  H     -343.989     665.093     427.224
  H     -339.090     665.507     427.350
  H     -339.819     665.362     425.730
  H     -339.216     663.908     426.580
  H     -335.722     661.835     426.306
  H     -335.994     662.295     427.970
  H     -337.262     662.508     426.787

 3  4  5  6  7  8  9  10  11  12  13  24  27  28  29  30  32 0
 6-311+G(2d,p)
 ****
 34  35 0
 6-311+G(2d,p)
 ****
 1  2  14  15  16  17  18  19  20  21  22  23  25  26 0
 3-21G
 ****
 31  33  36  37  38  39  40  41  42  43  44  45  46 0
 3-21G
 ****


