%nproc=1
%NoSave
%Mem=1900MB
#P OB98/GEN NMR

erre ene a

0 1
  C     -100.241    -473.449    -134.154
  O     -101.516    -474.027    -134.323
  H     -100.067    -473.288    -133.086
  H     -100.203    -472.484    -134.667
  H      -99.451    -474.101    -134.545
  P     -101.852    -474.766    -135.703
  C     -103.133    -472.799    -136.777
  O     -101.988    -473.638    -136.841
  C     -104.330    -473.401    -137.514
  O     -105.532    -472.655    -137.215
  C     -104.165    -473.342    -139.036
  O     -103.415    -474.401    -139.606
  C     -105.614    -473.382    -139.512
  O     -106.086    -474.731    -139.609
  C     -106.357    -472.636    -138.395
  N     -109.513    -469.459    -140.867
  C     -109.520    -470.844    -140.831
  N     -110.451    -471.456    -141.598
  N     -108.681    -471.549    -140.124
  C     -107.749    -470.808    -139.484
  C     -107.628    -469.431    -139.453
  C     -108.604    -468.655    -140.199
  O     -108.633    -467.427    -140.274
  N     -106.557    -469.035    -138.693
  C     -105.985    -470.163    -138.323
  N     -106.687    -471.265    -138.758
  O     -103.371    -475.252    -135.514
  O     -100.958    -475.919    -136.047
  H     -105.506    -475.217    -140.225
  H     -103.540    -476.033    -136.070
  H     -110.206    -468.968    -141.413
  H     -105.083    -470.239    -137.722
  H     -107.300    -473.129    -138.132
  H     -105.728    -472.932    -140.501
  H     -111.042    -470.958    -142.251
  H     -103.731    -472.378    -139.333
  H     -110.319    -472.450    -141.807
  H     -104.491    -474.426    -137.162
  H     -102.852    -471.847    -137.236
  H     -103.393    -472.590    -135.734
  P     -102.060    -474.085    -140.398
  C     -102.807    -475.462    -142.481
  O     -102.388    -474.219    -141.961
  O     -101.161    -475.376    -140.086
  O     -101.373    -472.820    -139.995
  H     -100.556    -475.197    -139.345
  H     -102.980    -475.369    -143.533
  H     -103.711    -475.765    -141.996
  H     -102.047    -476.195    -142.308

 6  7  8  9  10  11  12  13  14  15  26  29  33  34 0
 6-311+G(2d,p)
 ****
 36  38  39  40  41 0
 6-311+G(2d,p)
 ****
 1  2  3  4  5  16  17  18  19  20  21  22  23  24  25 0
 3-21G
 ****
 27  28  30  31  32  35  37  42  43  44  45  46  47 0
 3-21G
 ****
 48  49 0
 3-21G
 ****


