%nproc=1
%NoSave
%Mem=1900MB
#P OB98/GEN NMR

erre ene a

0 1
  C      117.065     311.788    -141.614
  O      116.785     312.364    -142.876
  H      116.748     310.742    -141.630
  H      116.508     312.314    -140.833
  H      118.138     311.830    -141.404
  P      117.339     313.851    -143.127
  C      116.318     316.239    -142.731
  O      116.194     314.836    -142.583
  C      115.367     316.967    -141.782
  O      114.005     316.747    -142.230
  C      115.463     316.492    -140.331
  O      115.254     317.617    -139.472
  C      114.290     315.535    -140.197
  O      113.874     315.380    -138.843
  C      113.259     316.193    -141.126
  N      112.239     315.251    -141.585
  C      111.397     314.712    -140.608
  O      111.540     315.024    -139.425
  N      110.444     313.803    -140.983
  C      110.374     313.412    -142.218
  N      109.423     312.489    -142.522
  C      111.272     313.920    -143.274
  C      112.164     314.834    -142.894
  O      117.225     313.979    -144.718
  O      118.706     314.102    -142.585
  H      113.055     314.838    -138.829
  H      116.385     313.641    -145.075
  H      111.185     313.556    -144.289
  H      112.857     315.266    -143.606
  H      112.755     317.023    -140.615
  H      114.568     314.545    -140.578
  H      116.422     316.024    -140.101
  H      115.555     318.045    -141.857
  H      108.844     312.151    -141.763
  H      116.099     316.535    -143.763
  H      109.316     312.075    -143.435
  H      117.357     316.512    -142.514
  P      116.457     318.142    -138.557
  C      117.617     317.510    -136.334
  O      116.669     317.138    -137.328
  O      116.408     319.590    -138.194
  O      117.747     317.845    -139.468
  H      118.355     318.605    -139.383
  H      117.656     316.754    -135.578
  H      117.325     318.440    -135.893
  H      118.582     317.616    -136.783

 6  7  8  9  10  11  12  13  14  15  16  26  30  31  32  33  35 0
 6-311+G(2d,p)
 ****
 37  38 0
 6-311+G(2d,p)
 ****
 1  2  3  4  5  17  18  19  20  21  22  23  24  25 0
 3-21G
 ****
 27  28  29  34  36  39  40  41  42  43  44  45  46 0
 3-21G
 ****


