%nproc=1
%NoSave
%Mem=1900MB
#P OB98/GEN NMR

erre ene a

0 1
  C      146.651      98.103    -899.100
  O      146.656      99.144    -898.140
  H      147.681      97.863    -899.370
  H      146.122      98.431    -900.000
  H      146.175      97.208    -898.690
  P      145.242      99.532    -897.480
  C      144.638     100.955    -895.350
  O      145.577     100.650    -896.370
  C      145.332     101.668    -894.190
  O      146.309     100.757    -893.590
  C      146.071     102.943    -894.590
  O      145.967     103.897    -893.530
  C      147.528     102.486    -894.700
  O      148.441     103.557    -894.560
  C      147.582     101.423    -893.590
  N      148.678     100.459    -893.790
  C      149.852     100.689    -893.050
  O      149.913     101.654    -892.280
  N      150.921      99.842    -893.220
  C      150.852      98.897    -894.110
  N      151.960      98.106    -894.250
  C      149.662      98.659    -894.940
  C      148.625      99.456    -894.730
  O      144.917      98.226    -896.610
  O      144.183      99.899    -898.460
  H      148.427     104.105    -895.370
  H      145.684      97.895    -896.110
  H      149.656      97.852    -895.690
  H      147.696      99.340    -895.290
  H      147.719     101.886    -892.610
  H      147.698     102.012    -895.690
  H      145.695     103.370    -895.520
  H      144.586     101.874    -893.410
  H      152.763      98.329    -893.670
  H      144.167     100.032    -894.980
  H      152.040      97.396    -894.950
  H      143.858     101.600    -895.780
  P      144.949     105.126    -893.680
  C      143.604     106.623    -892.060
  O      144.788     105.862    -892.270
  O      143.682     104.846    -894.400
  O      145.838     106.200    -894.510
  H      145.254     106.621    -895.180
  H      143.628     107.057    -891.082
  H      142.750     105.985    -892.146
  H      143.544     107.399    -892.794

 6  7  8  9  10  11  12  13  14  15  16  26  30  31  32  33  35 0
 6-311+G(2d,p)
 ****
 37  38 0
 6-311+G(2d,p)
 ****
 1  2  3  4  5  17  18  19  20  21  22  23  24  25 0
 3-21G
 ****
 27  28  29  34  36  39  40  41  42  43  44  45  46 0
 3-21G
 ****


