%nproc=1
%NoSave
%Mem=1900MB
#P OB98/GEN NMR

erre ene a

0 1
  C      -70.092      -9.110    -204.984
  O      -69.878      -8.580    -206.277
  P      -70.911      -7.526    -206.900
  C      -72.460      -8.158    -208.853
  O      -72.173      -8.336    -207.469
  C      -71.594      -9.084    -209.703
  O      -71.597     -10.427    -209.164
  C      -72.070      -9.235    -211.139
  O      -71.809      -8.076    -211.912
  C      -71.311     -10.481    -211.571
  O      -69.957     -10.156    -211.931
  C      -71.332     -11.321    -210.274
  N      -72.305     -12.402    -210.327
  C      -71.887     -13.572    -210.964
  O      -70.783     -13.631    -211.510
  N      -72.737     -14.655    -210.970
  C      -73.939     -14.531    -210.502
  N      -74.714     -15.648    -210.481
  C      -74.470     -13.260    -209.970
  C      -73.602     -12.252    -209.894
  O      -70.319      -6.539    -207.851
  O      -71.523      -6.779    -205.620
  H      -71.464      -5.815    -205.761
  H      -69.991      -9.811    -212.846
  H      -75.502     -13.190    -209.654
  H      -73.899     -11.288    -209.494
  H      -70.339     -11.747    -210.082
  H      -71.766     -10.973    -212.435
  H      -73.148      -9.444    -211.150
  H      -70.563      -8.705    -209.678
  H      -74.307     -16.507    -210.838
  H      -72.257      -7.114    -209.120
  H      -75.512     -15.746    -209.861
  H      -73.523      -8.354    -209.029
  P      -72.807      -7.777    -213.132
  C      -71.731      -8.129    -215.462
  O      -72.372      -8.722    -214.348
  O      -72.372      -6.311    -213.613
  O      -74.256      -7.824    -212.776
  H      -73.162      -5.812    -213.895
  H      -71.200      -8.907    -216.017
  H      -71.012      -7.367    -215.151
  H      -72.481      -7.679    -216.117
  H      -69.303      -9.791    -204.743
  H      -71.029      -9.626    -204.961
  H      -70.106      -8.313    -204.270

 3  4  5  6  7  8  9  10  11  12  13  24  27  28  29  30  32 0
 6-311+G(2d,p)
 ****
 34  35 0
 6-311+G(2d,p)
 ****
 1  2  14  15  16  17  18  19  20  21  22  23  25  26 0
 3-21G
 ****
 31  33  36  37  38  39  40  41  42  43  44  45  46 0
 3-21G
 ****


