%nproc=1
%NoSave
%Mem=1900MB
#P OB98/GEN NMR

erre ene a

0 1
  C      738.157     390.259    1548.663
  O      738.571     389.146    1549.419
  H      738.963     390.529    1547.969
  H      737.964     391.118    1549.308
  H      737.260     390.026    1548.082
  P      737.582     388.587    1550.569
  C      736.542     386.738    1549.077
  O      736.328     387.942    1549.823
  C      735.222     386.092    1548.709
  O      734.604     385.587    1549.926
  C      734.218     387.081    1548.038
  O      733.721     386.607    1546.778
  C      733.249     387.373    1549.161
  O      731.953     387.791    1548.703
  C      733.239     386.089    1549.992
  N      732.850     386.285    1551.389
  C      731.484     386.211    1551.690
  O      730.588     385.983    1550.849
  N      731.160     386.397    1552.989
  C      732.032     386.680    1554.047
  O      731.669     386.840    1555.164
  C      733.445     386.783    1553.637
  C      733.805     386.580    1552.354
  O      737.241     389.570    1551.645
  O      738.358     387.311    1551.151
  H      731.387     387.846    1549.485
  H      738.737     387.537    1552.018
  H      730.200     386.308    1553.209
  H      734.166     386.988    1554.415
  H      734.844     386.641    1552.059
  H      732.601     385.340    1549.562
  H      733.648     388.209    1549.769
  H      734.744     388.004    1547.769
  H      735.424     385.229    1548.040
  H      737.146     386.066    1549.708
  H      737.107     386.982    1548.178
  P      734.535     386.657    1545.400
  C      734.959     384.046    1545.330
  O      735.481     385.365    1545.345
  O      735.136     387.970    1545.015
  O      733.379     386.295    1544.314
  H      733.640     386.779    1543.499
  H      735.765     383.344    1545.292
  H      734.335     383.919    1544.470
  H      734.383     383.880    1546.216

 6  7  8  9  10  11  12  13  14  15  16  26  31  32  33  34  35 0
 6-311+G(2d,p)
 ****
 36  37 0
 6-311+G(2d,p)
 ****
 1  2  3  4  5  17  18  19  20  21  22  23  24  25 0
 3-21G
 ****
 27  28  29  30  38  39  40  41  42  43  44  45 0
 3-21G
 ****


