%nproc=1
%NoSave
%Mem=1900MB
#P OB98/GEN NMR

erre ene a

0 1
  C       58.338      70.641    -186.985
  O       58.856      70.029    -185.824
  P       58.472      70.557    -184.361
  C       59.267      72.484    -182.842
  O       59.212      71.974    -184.171
  C       59.497      73.999    -182.863
  O       58.567      74.599    -183.817
  C       59.257      74.659    -181.489
  O       60.337      75.474    -181.028
  C       57.933      75.381    -181.689
  O       57.706      76.430    -180.770
  C       58.009      75.763    -183.173
  N       56.709      76.136    -183.723
  C       56.285      77.446    -183.519
  O       56.935      78.302    -182.921
  N       55.032      77.751    -183.977
  C       54.136      76.869    -184.502
  O       52.993      77.189    -184.800
  C       54.625      75.488    -184.656
  C       55.874      75.192    -184.289
  O       58.704      69.590    -183.251
  O       56.942      71.003    -184.528
  H       57.503      76.031    -179.901
  H       56.787      71.696    -185.195
  H       54.713      78.697    -183.835
  H       53.931      74.764    -185.060
  H       56.262      74.184    -184.391
  H       58.704      76.589    -183.337
  H       57.128      74.649    -181.544
  H       59.142      73.902    -180.703
  H       60.517      74.175    -183.214
  H       60.094      72.002    -182.314
  H       58.343      72.228    -182.309
  P       60.441      76.124    -179.568
  C       58.954      77.682    -178.110
  O       59.229      77.152    -179.391
  O       61.785      76.662    -179.207
  O       60.038      74.916    -178.594
  H       60.485      75.028    -177.735
  H       57.888      77.917    -178.050
  H       59.524      78.607    -177.973
  H       59.209      76.973    -177.317
  H       58.716      70.140    -187.851
  H       58.635      71.669    -187.009
  H       57.270      70.579    -186.975

 3  4  5  6  7  8  9  10  11  12  13  23  28  29  30  31  32 0
 6-311+G(2d,p)
 ****
 33  34 0
 6-311+G(2d,p)
 ****
 1  2  14  15  16  17  18  19  20  21  22  24  25  26  27 0
 3-21G
 ****
 35  36  37  38  39  40  41  42  43  44  45 0
 3-21G
 ****


