%nproc=1
%NoSave
%Mem=1900MB
#P OB98/GEN NMR

erre ene a

0 1
  C      -61.590      52.299     264.647
  O      -61.161      51.213     263.851
  P      -59.699      51.228     263.201
  C      -60.804      51.298     260.881
  O      -59.818      51.872     261.739
  C      -61.569      52.397     260.148
  O      -62.186      53.298     261.094
  C      -60.701      53.271     259.254
  O      -60.372      52.597     258.053
  C      -61.595      54.494     259.078
  O      -62.576      54.261     258.055
  C      -62.268      54.592     260.454
  N      -61.951      59.597     261.386
  C      -62.510      58.904     260.370
  N      -62.521      57.570     260.173
  C      -61.844      56.942     261.151
  C      -61.189      57.520     262.230
  C      -61.280      58.918     262.345
  N      -60.769      59.630     263.408
  N      -60.582      56.546     263.003
  C      -60.854      55.411     262.390
  N      -61.668      55.596     261.309
  O      -58.960      49.933     263.262
  O      -58.925      52.358     264.030
  H      -62.103      53.920     257.271
  H      -58.157      51.963     264.480
  H      -63.027      59.499     259.624
  H      -60.503      54.434     262.704
  H      -63.334      54.835     260.369
  H      -61.033      55.388     258.794
  H      -59.792      53.566     259.792
  H      -62.372      51.919     259.562
  H      -61.491      50.708     261.493
  H      -61.015      60.607     263.465
  H      -60.543      59.127     264.262
  H      -60.314      50.634     260.161
  P      -58.914      51.966     257.868
  C      -58.797      52.728     255.422
  O      -58.195      52.791     256.698
  O      -58.866      50.481     257.724
  O      -58.126      52.448     259.180
  H      -57.471      51.770     259.432
  H      -58.550      51.776     254.944
  H      -58.410      53.544     254.809
  H      -59.884      52.828     255.499
  H      -62.586      52.116     264.994
  H      -61.575      53.196     264.064
  H      -60.935      52.407     265.486

 3  4  5  6  7  8  9  10  11  12  22  25  29  30  31  32 0
 6-311+G(2d,p)
 ****
 33  36  37 0
 6-311+G(2d,p)
 ****
 1  2  13  14  15  16  17  18  19  20  21  23  24  26 0
 3-21G
 ****
 27  28  34  35  38  39  40  41  42  43  44  45  46  47  48 0
 3-21G
 ****


