%nproc=1
%NoSave
%Mem=1900MB
#P OB98/GEN NMR

erre ene a

0 1
  C       44.000     441.436     -35.991
  O       44.708     440.366     -35.385
  P       43.914     438.987     -35.156
  C       44.108     439.085     -32.570
  O       44.438     438.388     -33.764
  C       44.090     438.146     -31.359
  O       43.114     437.100     -31.594
  C       45.437     437.481     -31.063
  O       45.573     437.389     -29.644
  C       45.276     436.086     -31.636
  O       46.156     435.156     -31.006
  C       43.783     435.837     -31.397
  N       43.246     434.802     -32.282
  C       43.039     433.536     -31.727
  O       43.375     433.309     -30.565
  N       42.499     432.547     -32.515
  C       42.297     432.772     -33.774
  N       41.763     431.759     -34.512
  C       42.621     434.057     -34.427
  C       43.064     435.023     -33.627
  O       44.574     438.018     -36.248
  O       42.434     439.089     -35.309
  H       45.892     435.077     -30.062
  H       43.923     437.367     -36.572
  H       42.465     434.182     -35.489
  H       43.309     436.007     -34.017
  H       43.603     435.525     -30.355
  H       45.497     436.096     -32.711
  H       46.282     438.035     -31.480
  H       43.747     438.717     -30.492
  H       41.565     430.885     -34.044
  H       43.109     439.521     -32.674
  H       41.570     431.847     -35.501
  H       44.823     439.901     -32.413
  P       46.482     438.492     -28.910
  C       48.184     436.597     -28.547
  O       47.452     437.650     -27.948
  O       45.445     439.111     -27.856
  O       47.109     439.558     -29.740
  H       45.863     439.850     -27.378
  H       48.901     436.205     -27.818
  H       48.732     436.960     -29.424
  H       47.503     435.790     -28.838
  H       44.645     442.285     -36.081
  H       43.155     441.693     -35.386
  H       43.665     441.137     -36.962

 3  4  5  6  7  8  9  10  11  12  13  21  23  27  28  29  30  32 0
 6-311+G(2d,p)
 ****
 34  35 0
 6-311+G(2d,p)
 ****
 1  2  14  15  16  17  18  19  20  22  24  25  26 0
 3-21G
 ****
 31  33  36  37  38  39  40  41  42  43  44  45  46 0
 3-21G
 ****


