%nproc=1
%NoSave
%Mem=1900MB
#P OB98/GEN NMR

erre ene a

0 1
  C      141.112      51.909     441.663
  O      139.794      51.428     441.937
  P      139.495      51.008     443.458
  C      139.013      52.301     445.657
  O      138.975      52.313     444.239
  C      138.810      53.712     446.216
  O      139.889      54.601     445.863
  C      137.538      54.384     445.717
  O      136.420      53.905     446.443
  C      137.840      55.856     445.977
  O      137.536      56.214     447.345
  C      139.353      55.942     445.723
  N      142.337      59.253     443.305
  C      142.124      59.080     444.663
  N      142.824      59.882     445.489
  N      141.300      58.192     445.156
  C      140.667      57.455     444.209
  C      140.817      57.516     442.845
  C      141.730      58.503     442.311
  O      141.968      58.686     441.120
  N      140.052      56.567     442.213
  C      139.352      56.021     443.192
  N      139.733      56.481     444.428
  O      140.954      50.750     444.063
  O      138.626      49.800     443.583
  H      136.576      56.135     447.489
  H      141.080      49.795     444.230
  H      142.977      59.954     442.979
  H      138.581      55.276     443.060
  H      139.849      56.567     446.473
  H      137.234      56.512     445.348
  H      143.475      60.583     445.177
  H      137.419      54.209     444.637
  H      142.688      59.764     446.486
  H      138.781      53.630     447.310
  H      139.966      51.901     446.005
  H      138.235      51.621     446.024
  P      135.143      53.402     445.606
  C      134.363      51.149     444.581
  O      135.276      51.816     445.433
  O      135.426      53.980     444.134
  O      133.832      53.883     446.129
  H      134.605      54.365     443.773
  H      134.856      50.269     444.160
  H      134.024      51.794     443.763
  H      133.495      50.828     445.169
  H      141.193      52.156     440.625
  H      141.826      51.150     441.906
  H      141.303      52.781     442.253

 3  4  5  6  7  8  9  10  11  12  23  26  30  31 0
 6-311+G(2d,p)
 ****
 33  35  36  37  38 0
 6-311+G(2d,p)
 ****
 1  2  13  14  15  16  17  18  19  20  21  22  24  25 0
 3-21G
 ****
 27  28  29  32  34  39  40  41  42  43  44  45  46  47  48  49 0
 3-21G
 ****


