%nproc=1
%NoSave
%Mem=1900MB
#P OB98/GEN NMR

erre ene a

0 1
  C     -315.886     383.362     290.399
  O     -314.626     383.859     290.898
  P     -314.534     385.215     291.748
  C     -313.854     386.634     289.715
  O     -313.497     386.212     291.027
  C     -313.295     388.041     289.399
  O     -314.017     389.056     290.088
  C     -311.822     388.204     289.795
  O     -310.970     387.609     288.830
  C     -311.739     389.738     289.875
  O     -311.549     390.305     288.563
  C     -313.098     390.115     290.443
  N     -312.662     393.581     294.180
  C     -312.666     393.696     292.829
  N     -312.790     392.733     291.910
  C     -312.935     391.529     292.485
  C     -312.950     391.251     293.851
  C     -312.804     392.350     294.714
  N     -312.789     392.230     296.094
  N     -313.108     389.887     294.070
  C     -313.197     389.356     292.870
  N     -313.096     390.308     291.880
  O     -314.265     384.994     293.212
  O     -315.952     385.935     291.550
  H     -311.470     391.278     288.666
  H     -316.165     386.485     292.320
  H     -312.559     394.722     292.442
  H     -313.339     388.309     292.662
  H     -313.498     391.018     289.988
  H     -310.889     390.078     290.488
  H     -311.654     387.781     290.790
  H     -313.428     388.198     288.330
  H     -314.954     386.674     289.644
  H     -312.654     393.055     296.636
  H     -312.857     391.306     296.499
  H     -313.482     385.910     288.985
  P     -310.450     386.109     289.046
  C     -308.144     387.161     289.388
  O     -308.858     386.115     288.780
  O     -311.233     385.064     288.315
  O     -310.562     385.895     290.651
  H     -310.728     384.959     290.830
  H     -308.237     388.065     288.761
  H     -307.099     386.878     289.444
  H     -308.507     387.379     290.406
  H     -315.723     382.451     289.862
  H     -316.322     384.088     289.745
  H     -316.547     383.179     291.220

 3  4  5  6  7  8  9  10  11  12  22  25  29  30  31  32 0
 6-311+G(2d,p)
 ****
 33  36  37 0
 6-311+G(2d,p)
 ****
 1  2  13  14  15  16  17  18  19  20  21  23  24  26 0
 3-21G
 ****
 27  28  34  35  38  39  40  41  42  43  44  45  46  47  48 0
 3-21G
 ****


