%nproc=1
%NoSave
%Mem=1900MB
#P OB98/GEN NMR

erre ene a

0 1
  C     -194.131     193.143     700.524
  O     -194.914     194.152     699.914
  H     -193.100     193.198     700.164
  H     -194.133     193.296     701.608
  H     -194.551     192.157     700.302
  P     -195.013     194.127     698.312
  C     -194.156     196.555     697.914
  O     -193.889     195.163     697.806
  C     -194.248     197.157     696.514
  O     -194.663     198.536     696.595
  C     -192.927     197.162     695.755
  O     -192.645     195.916     695.134
  C     -193.202     198.239     694.715
  O     -194.038     197.709     693.677
  C     -193.972     199.278     695.547
  N     -192.547     204.201     695.459
  C     -193.471     203.515     694.753
  N     -193.804     202.213     694.848
  C     -193.082     201.604     695.803
  C     -192.105     202.176     696.609
  C     -191.840     203.545     696.406
  N     -190.872     204.238     697.102
  N     -191.560     201.230     697.458
  C     -192.213     200.113     697.179
  N     -193.115     200.283     696.160
  O     -196.378     194.900     698.001
  O     -194.941     192.780     697.674
  H     -193.635     196.869     693.387
  H     -196.650     194.751     697.073
  H     -194.016     204.093     694.007
  H     -192.058     199.163     697.670
  H     -194.726     199.810     694.957
  H     -192.286     198.608     694.240
  H     -192.095     197.487     696.393
  H     -195.022     196.612     695.957
  H     -193.334     197.033     698.463
  H     -190.652     205.173     696.786
  H     -190.243     203.724     697.705
  H     -195.091     196.709     698.456
  P     -191.104     195.572     694.831
  C     -191.327     196.383     692.368
  O     -190.659     196.530     693.616
  O     -191.195     194.127     694.139
  O     -190.209     195.580     696.027
  H     -190.397     193.598     694.351
  H     -190.926     197.082     691.664
  H     -192.373     196.569     692.499
  H     -191.185     195.387     692.002

 6  7  8  9  10  11  12  13  14  15  25  28  32  33  34  35 0
 6-311+G(2d,p)
 ****
 36  39  40 0
 6-311+G(2d,p)
 ****
 1  2  3  4  5  16  17  18  19  20  21  22  23  24 0
 3-21G
 ****
 26  27  29  30  31  37  38  41  42  43  44  45  46  47 0
 3-21G
 ****
 48 0
 3-21G
 ****


