%nproc=1
%NoSave
%Mem=1900MB
#P OB98/GEN NMR

erre ene a

0 1
  C     -691.273     -93.210    -489.131
  O     -689.877     -92.967    -489.193
  P     -689.322     -91.628    -488.494
  C     -686.956     -92.768    -488.691
  O     -687.749     -91.595    -488.802
  C     -685.636     -92.585    -489.442
  O     -684.969     -91.392    -488.980
  C     -684.637     -93.714    -489.249
  O     -684.966     -94.858    -490.026
  C     -683.339     -93.030    -489.650
  O     -683.210     -93.002    -491.085
  C     -683.544     -91.604    -489.107
  N     -682.861     -91.361    -487.837
  C     -681.476     -91.251    -487.900
  O     -680.836     -91.344    -488.947
  N     -680.836     -91.046    -486.702
  C     -681.432     -91.011    -485.474
  O     -680.813     -90.867    -484.428
  C     -682.892     -91.172    -485.471
  C     -683.531     -91.337    -486.630
  O     -689.425     -92.041    -486.949
  O     -690.088     -90.408    -488.871
  H     -689.360     -93.005    -486.827
  H     -683.199     -93.932    -491.378
  H     -679.834     -90.940    -486.727
  H     -683.398     -91.155    -484.510
  H     -684.608     -91.461    -486.648
  H     -683.195     -90.865    -489.837
  H     -682.444     -93.544    -489.256
  H     -684.591     -93.996    -488.187
  H     -685.862     -92.451    -490.513
  H     -687.503     -93.615    -489.124
  H     -686.778     -92.973    -487.634
  P     -684.093     -96.184    -489.754
  C     -686.087     -97.517    -490.804
  O     -684.687     -97.316    -490.720
  O     -684.600     -96.603    -488.295
  O     -682.619     -95.963    -489.860
  H     -685.566     -96.505    -488.186
  H     -686.305     -98.041    -491.733
  H     -686.627     -96.569    -490.803
  H     -686.420     -98.131    -489.959
  H     -691.498     -94.128    -489.633
  H     -691.796     -92.406    -489.606
  H     -691.578     -93.279    -488.108

 3  4  5  6  7  8  9  10  11  12  13  24  28  29  30  31  32 0
 6-311+G(2d,p)
 ****
 33  34 0
 6-311+G(2d,p)
 ****
 1  2  14  15  16  17  18  19  20  21  22  23  25  26  27 0
 3-21G
 ****
 35  36  37  38  39  40  41  42  43  44  45 0
 3-21G
 ****


