%nproc=1
%NoSave
%Mem=1900MB
#P OB98/GEN NMR

erre ene a

0 1
  C     -206.478     -57.306    -538.553
  O     -205.441     -58.209    -538.224
  H     -206.735     -57.435    -539.607
  H     -206.146     -56.276    -538.394
  H     -207.363     -57.509    -537.944
  P     -204.927     -58.192    -536.705
  C     -206.896     -59.700    -535.921
  O     -206.216     -58.457    -535.789
  C     -207.510     -60.096    -534.584
  O     -206.472     -60.549    -533.683
  C     -208.201     -58.949    -533.860
  O     -209.488     -58.675    -534.384
  C     -208.230     -59.478    -532.434
  O     -209.340     -60.359    -532.221
  C     -206.909     -60.251    -532.336
  N     -205.463     -58.478    -527.774
  C     -206.489     -59.271    -528.149
  N     -206.800     -59.710    -529.386
  C     -205.901     -59.270    -530.285
  C     -204.805     -58.459    -530.051
  C     -204.592     -58.055    -528.719
  N     -203.562     -57.226    -528.341
  N     -204.140     -58.185    -531.229
  C     -204.819     -58.827    -532.160
  N     -205.887     -59.499    -531.634
  O     -204.592     -56.647    -536.455
  O     -203.753     -59.068    -536.423
  H     -209.288     -61.037    -532.925
  H     -203.630     -56.504    -536.538
  H     -207.155     -59.587    -527.351
  H     -204.582     -58.830    -533.216
  H     -207.026     -61.207    -531.813
  H     -208.313     -58.658    -531.717
  H     -207.574     -58.052    -533.890
  H     -208.204     -60.929    -534.749
  H     -206.183     -60.471    -536.235
  H     -207.671     -59.599    -536.688
  H     -203.511     -56.926    -527.382
  H     -202.975     -56.816    -529.057
  P     -210.069     -57.194    -534.200
  C     -208.755     -56.445    -536.325
  O     -209.076     -56.194    -534.964
  O     -209.818     -56.873    -532.652
  O     -211.506     -57.038    -534.572
  H     -210.551     -56.329    -532.303
  H     -208.086     -55.689    -536.679
  H     -209.650     -56.432    -536.911
  H     -208.287     -57.403    -536.410

 6  7  8  9  10  11  12  13  14  15  25  28  32  33  34  35 0
 6-311+G(2d,p)
 ****
 36  37  40 0
 6-311+G(2d,p)
 ****
 1  2  3  4  5  16  17  18  19  20  21  22  23  24 0
 3-21G
 ****
 26  27  29  30  31  38  39 41  42  43  44  45  46  47  48 0
 3-21G
 ****


