%nproc=1
%NoSave
%Mem=1900MB
#P OB98/GEN NMR

erre ene a

0 1
  C       68.772    -896.410     776.696
  O       69.034    -897.560     775.893
  P       70.208    -898.570     776.354
  C       71.935    -897.680     774.689
  O       71.617    -897.880     776.057
  C       72.865    -896.470     774.527
  O       74.090    -896.630     775.267
  C       73.290    -896.240     773.075
  O       72.243    -895.680     772.315
  C       74.488    -895.320     773.276
  O       74.090    -893.950     773.475
  C       75.116    -895.870     774.600
  N       76.309    -896.660     774.386
  C       77.498    -896.110     774.861
  O       77.505    -895.000     775.395
  N       78.659    -896.840     774.708
  C       78.648    -897.990     774.119
  N       79.807    -898.660     773.993
  C       77.407    -898.590     773.594
  C       76.289    -897.890     773.758
  O       70.057    -900.000     775.876
  O       70.101    -898.510     777.978
  H       74.733    -893.590     774.100
  H       70.385    -899.370     778.339
  H       77.434    -899.570     773.101
  H       75.334    -898.250     773.369
  H       75.386    -895.040     775.264
  H       75.166    -895.340     772.431
  H       73.620    -897.170     772.625
  H       72.335    -895.580     774.902
  H       80.656    -898.220     774.348
  H       71.016    -897.530     774.119
  H       79.888    -899.580     773.599
  H       72.412    -898.580     774.294
  P       71.445    -896.660     771.337
  C       72.367    -895.780     769.076
  O       72.306    -896.850     770.030
  O       70.192    -895.750     770.864
  O       70.959    -897.940     771.983
  H       69.431    -896.310     770.711
  H       73.236    -895.950     768.426
  H       72.517    -894.810     769.597
  H       71.476    -895.750     768.478
  H       67.973    -895.846     776.262
  H       69.651    -895.802     776.746
  H       68.495    -896.719     777.682

 3  4  5  6  7  8  9  10  11  12  13  23  27  28  29  30  32 0
 6-311+G(2d,p)
 ****
 34  35 0
 6-311+G(2d,p)
 ****
 1  2  14  15  16  17  18  19  20  21  22  24  25  26 0
 3-21G
 ****
 31  33  36  37  38  39  40  41  42  43  44  45  46 0
 3-21G
 ****


