%nproc=1
%NoSave
%Mem=1900MB
#P OB98/GEN NMR

erre ene a

0 1
  C     1052.388      86.552     339.462
  O     1052.740      87.688     338.697
  H     1051.490      86.783     340.038
  H     1053.196      86.312     340.155
  H     1052.183      85.696     338.814
  P     1053.838      87.485     337.551
  C     1055.696      89.007     338.531
  O     1055.282      87.685     338.237
  C     1057.222      89.095     338.566
  O     1057.603      90.449     338.916
  C     1057.880      88.146     339.583
  O     1059.084      87.627     339.018
  C     1058.207      89.057     340.749
  O     1059.288      88.554     341.543
  C     1058.505      90.365     340.039
  N     1060.767      93.116     343.612
  C     1061.261      92.090     342.849
  N     1062.540      91.713     343.053
  N     1060.544      91.451     341.930
  C     1059.296      91.952     341.795
  C     1058.693      92.975     342.502
  C     1059.476      93.635     343.518
  O     1059.095      94.542     344.245
  N     1057.401      93.157     342.095
  C     1057.217      92.256     341.154
  N     1058.339      91.508     340.927
  O     1053.672      88.798     336.644
  O     1053.696      86.245     336.735
  H     1060.087      88.548     340.975
  H     1053.364      88.548     335.753
  H     1061.353      93.563     344.303
  H     1056.294      92.097     340.608
  H     1059.542      90.413     339.657
  H     1057.324      89.153     341.405
  H     1063.153      92.182     343.698
  H     1057.222      87.321     339.869
  H     1062.928      90.979     342.472
  H     1057.602      88.909     337.555
  H     1055.292      89.301     339.512
  H     1055.299      89.687     337.768
  P     1059.010      86.158     338.376
  C     1059.100      84.866     340.617
  O     1058.357      85.173     339.453
  O     1060.548      85.699     338.336
  O     1058.404      86.113     337.015
  H     1060.880      85.709     337.425
  H     1058.535      84.201     341.236
  H     1059.306      85.767     341.157
  H     1060.021      84.398     340.339

 6  7  8  9  10  11  12  13  14  15  26  29  33  34 0
 6-311+G(2d,p)
 ****
 36  38  39  40  41 0
 6-311+G(2d,p)
 ****
 1  2  3  4  5  16  17  18  19  20  21  22  23  24  25 0
 3-21G
 ****
 27  28  30  31  32  35  37  42  43  44  45  46  47 0
 3-21G
 ****
 48  49 0
 3-21G
 ****


