%nproc=1
%NoSave
%Mem=1900MB
#P OB98/GEN NMR

erre ene a

0 1
  C       85.954     -10.352     -79.447
  O       84.807      -9.881     -80.116
  H       85.990      -9.892     -78.455
  H       86.859     -10.064     -79.989
  H       85.916     -11.437     -79.328
  P       84.524     -10.362     -81.622
  C       83.310     -12.602     -81.312
  O       83.156     -11.208     -81.546
  C       82.331     -13.413     -82.161
  O       82.549     -14.832     -81.930
  C       80.855     -13.117     -81.856
  O       80.136     -12.930     -83.077
  C       80.371     -14.385     -81.170
  O       78.964     -14.578     -81.282
  C       81.247     -15.437     -81.858
  N       81.258     -16.700     -81.132
  C       80.549     -17.754     -81.714
  O       79.964     -17.590     -82.786
  N       80.472     -18.949     -81.047
  C       81.016     -19.067     -79.877
  N       80.878     -20.268     -79.256
  C       81.751     -17.971     -79.212
  C       81.836     -16.828     -79.891
  O       85.665     -11.064     -82.277
  O       84.073      -9.036     -82.397
  H       78.715     -15.370     -80.757
  H       84.223      -9.164     -83.362
  H       82.181     -18.119     -78.232
  H       82.355     -15.967     -79.482
  H       80.901     -15.626     -82.883
  H       80.620     -14.335     -80.101
  H       80.715     -12.241     -81.223
  H       82.560     -13.236     -83.219
  H       80.361     -20.990     -79.745
  H       83.146     -12.798     -80.246
  H       81.236     -20.471     -78.335
  H       84.333     -12.886     -81.577
  P       80.039     -11.421     -83.617
  C       82.132     -11.681     -85.129
  O       80.749     -11.364     -85.055
  O       81.037     -10.620     -82.657
  O       78.656     -10.860     -83.565
  H       80.529     -10.035     -82.065
  H       82.463     -11.600     -86.143
  H       82.288     -12.681     -84.782
  H       82.687     -11.000     -84.518

 6  7  8  9  10  11  12  13  14  15  16  26  30  31  32  33  35 0
 6-311+G(2d,p)
 ****
 37  38 0
 6-311+G(2d,p)
 ****
 1  2  3  4  5  17  18  19  20  21  22  23  24  25 0
 3-21G
 ****
 27  28  29  34  36  39  40  41  42  43  44  45  46 0
 3-21G
 ****


