%nproc=1
%NoSave
%Mem=1900MB
#P OB98/GEN NMR

erre ene a

0 1
  C       -8.128     775.512     368.037
  O       -8.133     774.555     369.075
  H       -7.950     776.501     368.472
  H       -9.098     775.521     367.535
  H       -7.333     775.297     367.316
  P       -8.173     773.014     368.634
  C       -7.946     772.127     371.063
  O       -8.745     772.193     369.891
  C       -8.793     772.445     372.294
  O       -9.086     773.861     372.348
  C      -10.142     771.725     372.330
  O      -10.018     770.402     372.825
  C      -10.897     772.615     373.304
  O      -10.475     772.324     374.655
  C      -10.432     774.012     372.895
  N      -14.056     777.475     372.102
  C      -13.448     777.077     373.283
  N      -13.867     777.688     374.406
  N      -12.512     776.166     373.345
  C      -12.194     775.633     372.141
  C      -12.731     775.942     370.903
  C      -13.756     776.961     370.846
  O      -14.312     777.357     369.827
  N      -12.155     775.200     369.913
  C      -11.279     774.431     370.539
  N      -11.273     774.652     371.892
  O       -6.627     772.596     368.596
  O       -8.841     772.739     367.324
  H      -10.941     772.945     375.236
  H       -6.485     771.966     367.863
  H      -14.778     778.167     372.108
  H      -10.637     773.706     370.059
  H      -10.370     774.705     373.743
  H      -11.978     772.454     373.266
  H      -14.615     778.357     374.430
  H      -10.636     771.754     371.351
  H      -13.404     777.434     375.274
  H       -8.200     772.200     373.182
  H       -7.136     772.859     370.981
  H       -7.519     771.125     371.149
  P      -10.981     769.281     372.195
  C       -9.444     767.615     373.462
  O      -10.771     767.968     373.104
  O      -10.243     768.910     370.825
  O      -12.387     769.711     371.972
  H      -10.880     768.518     370.196
  H       -9.460     766.729     374.061
  H       -9.000     768.414     374.018
  H       -8.871     767.436     372.576

 6  7  8  9  10  11  12  13  14  15  26  29  33  34 0
 6-311+G(2d,p)
 ****
 36  38  39  40  41 0
 6-311+G(2d,p)
 ****
 1  2  3  4  5  16  17  18  19  20  21  22  23  24  25 0
 3-21G
 ****
 27  28  30  31  32  35  37  42  43  44  45  46  47 0
 3-21G
 ****
 48  49 0
 3-21G
 ****


