%nproc=1
%NoSave
%Mem=1900MB
#P OB98/GEN NMR

erre ene a

0 1
  C      -32.824     -33.250    -177.678
  O      -33.955     -32.511    -178.095
  H      -32.284     -33.596    -178.562
  H      -33.137     -34.119    -177.092
  H      -32.159     -32.618    -177.081
  P      -34.917     -31.966    -176.931
  C      -36.842     -33.488    -177.766
  O      -36.012     -33.113    -176.677
  C      -37.502     -34.838    -177.493
  O      -36.510     -35.882    -177.396
  C      -38.322     -34.888    -176.206
  O      -39.625     -34.370    -176.417
  C      -38.323     -36.383    -175.916
  O      -39.306     -37.067    -176.724
  C      -36.902     -36.791    -176.331
  N      -35.352     -39.037    -172.080
  C      -36.449     -39.299    -172.879
  N      -37.272     -40.292    -172.473
  N      -36.724     -38.642    -173.974
  C      -35.847     -37.640    -174.229
  C      -34.728     -37.280    -173.515
  C      -34.405     -38.051    -172.335
  O      -33.407     -37.921    -171.631
  N      -34.083     -36.220    -174.104
  C      -34.832     -35.923    -175.151
  N      -35.917     -36.752    -175.265
  O      -35.760     -30.809    -177.655
  O      -34.224     -31.447    -175.716
  H      -39.361     -37.995    -176.441
  H      -35.893     -30.078    -177.023
  H      -35.174     -39.596    -171.264
  H      -34.627     -35.126    -175.855
  H      -36.874     -37.806    -176.744
  H      -38.581     -36.590    -174.876
  H      -37.279     -40.624    -171.519
  H      -37.810     -34.361    -175.394
  H      -38.112     -40.433    -173.019
  H      -38.134     -35.075    -178.361
  H      -36.229     -33.562    -178.670
  H      -37.611     -32.724    -177.914
  P      -40.311     -33.545    -175.226
  C      -41.241     -35.774    -174.270
  O      -40.561     -34.555    -174.000
  O      -41.785     -33.264    -175.789
  O      -39.622     -32.270    -174.872
  H      -41.862     -32.329    -176.062
  H      -41.333     -36.339    -173.366
  H      -40.686     -36.340    -174.989
  H      -42.215     -35.561    -174.658

 6  7  8  9  10  11  12  13  14  15  26  29  33  34 0
 6-311+G(2d,p)
 ****
 36  38  39  40  41 0
 6-311+G(2d,p)
 ****
 1  2  3  4  5  16  17  18  19  20  21  22  23  24  25 0
 3-21G
 ****
 27  28  30  31  32  35  37  42  43  44  45  46  47 0
 3-21G
 ****
 48  49 0
 3-21G
 ****


