%nproc=1
%NoSave
%Mem=1900MB
#P OB98/GEN NMR

erre ene a

0 1
  C     -220.139     514.172     296.488
  O     -220.691     515.253     295.762
  H     -220.954     513.529     296.828
  H     -219.591     514.538     297.363
  H     -219.474     513.583     295.851
  P     -219.693     516.368     295.183
  C     -218.373     518.320     296.252
  O     -219.008     517.061     296.464
  C     -217.749     518.819     297.556
  O     -216.801     517.847     298.060
  C     -216.987     520.132     297.417
  O     -217.875     521.237     297.457
  C     -216.094     520.068     298.649
  O     -216.863     520.388     299.823
  C     -215.701     518.577     298.671
  N     -210.623     518.443     298.881
  C     -211.535     518.971     299.779
  N     -211.017     519.565     300.872
  N     -212.834     518.923     299.609
  C     -213.203     518.357     298.442
  C     -212.393     517.814     297.464
  C     -210.961     517.819     297.682
  O     -210.123     517.341     296.925
  N     -213.127     517.418     296.371
  C     -214.376     517.662     296.709
  N     -214.476     518.246     297.954
  O     -220.287     517.346     294.216
  O     -218.492     515.532     294.535
  H     -217.155     521.313     299.733
  H     -218.656     515.361     293.587
  H     -209.635     518.517     299.057
  H     -215.243     517.440     296.100
  H     -215.580     518.197     299.692
  H     -215.257     520.770     298.609
  H     -210.034     519.769     300.983
  H     -216.352     520.145     296.523
  H     -211.669     520.013     301.513
  H     -218.550     518.906     298.304
  H     -219.142     519.019     295.906
  H     -217.603     518.236     295.477
  P     -217.658     522.526     296.516
  C     -215.691     524.185     296.232
  O     -216.327     523.233     297.067
  O     -218.839     523.430     296.407
  O     -217.161     521.927     295.126
  H     -217.909     521.651     294.528
  H     -214.824     524.570     296.726
  H     -216.369     524.987     296.025
  H     -215.400     523.717     295.315

 6  7  8  9  10  11  12  13  14  15  26  29  33  34 0
 6-311+G(2d,p)
 ****
 36  38  39  40  41 0
 6-311+G(2d,p)
 ****
 1  2  3  4  5  16  17  18  19  20  21  22  23  24  25 0
 3-21G
 ****
 27  28  30  31  32  35  37  42  43  44  45  46  47 0
 3-21G
 ****
 48  49 0
 3-21G
 ****


