%nproc=1
%NoSave
%Mem=1900MB
#P OB98/GEN NMR

erre ene a

0 1
  C     -213.436     344.551    -524.802
  O     -213.048     344.220    -523.484
  H     -213.943     345.523    -524.784
  H     -214.130     343.800    -525.195
  H     -212.557     344.622    -525.449
  P     -212.385     342.772    -523.279
  C     -213.236     340.549    -524.347
  O     -213.566     341.755    -523.677
  C     -214.503     339.895    -524.893
  O     -215.041     340.667    -525.990
  C     -214.298     338.489    -525.449
  O     -214.202     337.495    -524.440
  C     -215.583     338.345    -526.268
  O     -216.687     338.114    -525.384
  C     -215.662     339.738    -526.932
  N     -214.989     339.798    -528.228
  C     -215.744     339.400    -529.345
  O     -216.912     339.029    -529.210
  N     -215.144     339.404    -530.574
  C     -213.914     339.794    -530.706
  N     -213.376     339.770    -531.960
  C     -213.083     340.220    -529.569
  C     -213.677     340.197    -528.375
  O     -212.315     342.624    -521.685
  O     -211.088     342.537    -523.979
  H     -216.496     337.294    -524.897
  H     -212.058     341.692    -521.440
  H     -212.051     340.512    -529.716
  H     -213.127     340.499    -527.484
  H     -216.704     340.051    -527.055
  H     -215.550     337.511    -526.964
  H     -213.439     338.446    -526.129
  H     -215.258     339.902    -524.094
  H     -213.951     339.409    -532.710
  H     -212.743     339.879    -523.630
  H     -212.387     339.900    -532.135
  H     -212.543     340.751    -525.170
  P     -213.475     336.110    -524.840
  C     -214.092     334.133    -526.407
  O     -214.548     335.242    -525.653
  O     -213.365     335.348    -523.440
  O     -212.139     336.277    -525.505
  H     -212.551     334.809    -523.395
  H     -214.924     333.662    -526.887
  H     -213.612     333.432    -525.756
  H     -213.395     334.467    -527.147

 6  7  8  9  10  11  12  13  14  15  16  26  30  31  32  33  35 0
 6-311+G(2d,p)
 ****
 37  38 0
 6-311+G(2d,p)
 ****
 1  2  3  4  5  17  18  19  20  21  22  23  24  25 0
 3-21G
 ****
 27  28  29  34  36  39  40  41  42  43  44  45  46 0
 3-21G
 ****


