%nproc=1
%NoSave
%Mem=1900MB
#P OB98/GEN NMR

erre ene a

0 1
  C     -310.003    -372.788     121.230
  O     -310.370    -372.627     119.857
  P     -311.582    -373.498     119.267
  C     -310.088    -375.150     117.977
  O     -311.066    -375.000     118.998
  C     -310.319    -376.406     117.124
  O     -309.949    -377.605     117.856
  C     -311.775    -376.592     116.656
  O     -311.718    -377.172     115.340
  C     -312.304    -377.594     117.664
  O     -313.491    -378.237     117.207
  C     -311.092    -378.494     117.832
  N     -311.153    -379.304     119.049
  C     -311.305    -380.692     118.881
  O     -311.469    -381.152     117.760
  N     -311.283    -381.478     120.004
  C     -311.268    -380.940     121.181
  N     -311.237    -381.761     122.262
  C     -311.301    -379.470     121.392
  C     -311.208    -378.739     120.295
  O     -312.335    -372.876     118.140
  O     -312.541    -373.683     120.550
  H     -314.223    -377.576     117.168
  H     -313.475    -373.689     120.257
  H     -311.368    -379.062     122.396
  H     -311.222    -377.652     120.352
  H     -310.960    -379.167     116.985
  H     -312.547    -377.080     118.603
  H     -312.340    -375.662     116.620
  H     -309.657    -376.337     116.248
  H     -311.243    -382.765     122.106
  H     -309.097    -375.209     118.444
  H     -311.177    -381.415     123.222
  H     -310.083    -374.249     117.350
  P     -311.593    -376.195     114.074
  C     -313.742    -374.825     114.585
  O     -312.332    -374.828     114.420
  O     -312.638    -376.881     113.046
  O     -310.242    -376.108     113.443
  H     -312.378    -376.646     112.134
  H     -314.033    -373.896     115.100
  H     -314.074    -375.669     115.199
  H     -314.220    -374.856     113.616
  H     -309.184    -372.139     121.459
  H     -309.713    -373.803     121.405
  H     -310.837    -372.543     121.853

 3  4  5  6  7  8  9  10  11  12  13  23  27  28  29  30  32 0
 6-311+G(2d,p)
 ****
 34  35 0
 6-311+G(2d,p)
 ****
 1  2  14  15  16  17  18  19  20  21  22  24  25  26 0
 3-21G
 ****
 31  33  36  37  38  39  40  41  42  43  44  45  46 0
 3-21G
 ****


