%nproc=1
%NoSave
%Mem=1900MB
#P OB98/GEN NMR

erre ene a

0 1
  C     -217.966     371.981     662.570
  O     -219.005     372.112     661.592
  P     -219.023     373.368     660.590
  C     -220.384     374.889     662.139
  O     -219.148     374.728     661.442
  C     -220.597     376.314     662.672
  O     -221.958     376.498     663.128
  C     -219.682     376.714     663.839
  O     -219.425     378.117     663.685
  C     -220.553     376.445     665.050
  O     -220.097     377.119     666.216
  C     -221.930     376.889     664.522
  N     -223.038     376.301     665.274
  C     -223.274     376.815     666.547
  O     -222.546     377.691     667.009
  N     -224.319     376.309     667.284
  C     -224.990     375.296     666.826
  N     -226.001     374.826     667.608
  C     -224.723     374.650     665.520
  C     -223.744     375.208     664.812
  O     -219.998     373.250     659.461
  O     -217.521     373.429     660.020
  H     -220.680     376.877     666.959
  H     -217.532     373.791     659.119
  H     -225.282     373.798     665.201
  H     -223.463     374.819     663.824
  H     -222.028     377.979     664.560
  H     -220.564     375.366     665.273
  H     -218.743     376.138     663.882
  H     -220.446     377.015     661.831
  H     -226.142     375.267     668.506
  H     -220.404     374.180     662.973
  H     -226.509     373.974     667.414
  H     -221.211     374.621     661.470
  P     -218.020     378.683     663.183
  C     -216.767     378.328     665.396
  O     -216.882     377.931     664.034
  O     -217.909     380.166     663.160
  O     -217.833     378.064     661.703
  H     -217.154     378.575     661.222
  H     -216.129     377.623     665.923
  H     -217.752     378.339     665.891
  H     -216.317     379.333     665.438
  H     -218.123     371.089     663.139
  H     -217.982     372.828     663.223
  H     -217.017     371.928     662.078

 3  4  5  6  7  8  9  10  11  12  13  23  27  28  29  30  32 0
 6-311+G(2d,p)
 ****
 34  35 0
 6-311+G(2d,p)
 ****
 1  2  14  15  16  17  18  19  20  21  22  24  25  26 0
 3-21G
 ****
 31  33  36  37  38  39  40  41  42  43  44  45  46 0
 3-21G
 ****


