%nproc=1
%NoSave
%Mem=1900MB
#P OB98/GEN NMR

erre ene a

0 1
  C       21.883    -303.962    -247.121
  O       21.114    -304.431    -246.033
  H       21.270    -303.989    -248.028
  H       22.756    -304.603    -247.268
  H       22.207    -302.932    -246.947
  P       21.789    -304.366    -244.580
  C       23.376    -306.407    -244.889
  O       23.257    -304.999    -244.736
  C       24.726    -306.743    -245.532
  O       24.803    -306.076    -246.824
  C       25.932    -306.275    -244.699
  O       26.984    -307.237    -244.823
  C       26.334    -304.978    -245.380
  O       27.693    -304.620    -245.161
  C       26.022    -305.299    -246.843
  N       25.859    -304.105    -247.663
  C       26.614    -304.017    -248.832
  O       27.352    -304.904    -249.256
  N       26.505    -302.832    -249.521
  C       25.750    -301.754    -249.159
  O       25.708    -300.710    -249.804
  C       24.981    -301.902    -247.910
  C       25.073    -303.053    -247.232
  O       20.994    -305.485    -243.750
  O       21.762    -303.032    -243.916
  H       20.216    -305.094    -243.313
  H       28.257    -305.329    -245.534
  H       27.045    -302.753    -250.370
  H       24.378    -301.065    -247.587
  H       24.530    -303.184    -246.302
  H       26.806    -305.939    -247.273
  H       25.707    -304.156    -245.022
  H       25.686    -306.126    -243.648
  H       24.773    -307.823    -245.723
  H       22.570    -306.766    -245.534
  H       23.295    -306.886    -243.909
  P       26.889    -308.559    -243.907
  C       28.151    -308.184    -241.641
  O       26.953    -308.035    -242.386
  O       28.318    -309.221    -244.161
  O       25.714    -309.418    -244.241
  H       29.038    -308.576    -244.253
  H       28.012    -307.783    -240.659
  H       28.944    -307.659    -242.132
  H       28.400    -309.222    -241.571

 6  7  8  9  10  11  12  13  14  15  16  27  31  32  33  34  35 0
 6-311+G(2d,p)
 ****
 36  37 0
 6-311+G(2d,p)
 ****
 1  2  3  4  5  17  18  19  20  21  22  23  24  25 0
 3-21G
 ****
 26  28  29  30  38  39  40  41  42  43  44  45 0
 3-21G
 ****


