%nproc=1
%NoSave
%Mem=1900MB
#P OB98/GEN NMR

erre ene a

0 1
  C      138.327     -92.053     746.114
  O      139.124     -93.209     746.283
  P      140.379     -93.175     747.281
  C      141.954     -91.222     747.836
  O      141.356     -91.993     746.805
  C      142.428     -89.873     747.286
  O      141.305     -89.000     747.058
  C      143.359     -89.115     748.230
  O      144.663     -89.667     748.210
  C      143.254     -87.698     747.671
  O      144.119     -87.542     746.529
  C      141.776     -87.646     747.222
  N      140.317     -83.044     748.878
  C      141.292     -83.437     748.027
  N      141.641     -84.682     747.663
  C      140.892     -85.591     748.304
  C      139.888     -85.350     749.234
  C      139.584     -84.004     749.505
  N      138.561     -83.597     750.327
  N      139.364     -86.548     749.701
  C      140.045     -87.481     749.079
  N      140.932     -86.945     748.175
  O      141.048     -94.488     747.505
  O      139.758     -92.615     748.649
  H      145.030     -87.687     746.846
  H      139.877     -93.283     749.355
  H      141.853     -82.626     747.560
  H      139.920     -88.545     749.217
  H      141.660     -87.147     746.253
  H      143.527     -86.933     748.394
  H      142.952     -89.127     749.251
  H      142.919     -90.059     746.321
  H      142.807     -91.783     748.229
  H      138.331     -82.614     750.335
  H      137.826     -84.268     750.556
  H      141.234     -91.070     748.645
  P      145.642     -89.422     749.451
  C      146.282     -87.216     750.626
  O      146.111     -87.890     749.383
  O      146.743     -90.426     749.607
  O      144.667     -89.434     750.721
  H      145.130     -89.784     751.497
  H      145.293     -86.941     751.006
  H      146.863     -86.325     750.464
  H      146.787     -87.875     751.347
  H      137.542     -92.260     745.417
  H      138.933     -91.253     745.742
  H      137.903     -91.771     747.055

 3  4  5  6  7  8  9  10  11  12  22  25  29  30  31  32 0
 6-311+G(2d,p)
 ****
 33  36  37 0
 6-311+G(2d,p)
 ****
 1  2  13  14  15  16  17  18  19  20  21  23  24  26 0
 3-21G
 ****
 27  28  34  35  38  39  40  41  42  43  44  45  46  47  48 0
 3-21G
 ****


