%nproc=1
%NoSave
%Mem=1900MB
#P OB98/GEN NMR

erre ene a

0 1
  C       87.291      -4.727     -44.760
  O       87.192      -3.596     -45.607
  P       87.527      -2.160     -44.968
  C       89.768      -1.038     -44.285
  O       89.033      -2.249     -44.420
  C       90.554      -1.009     -42.973
  O       89.637      -0.757     -41.882
  C       91.310      -2.302     -42.669
  O       92.547      -1.951     -42.049
  C       90.428      -2.996     -41.650
  O       91.170      -3.905     -40.840
  C       89.836      -1.793     -40.898
  N       88.591      -2.127     -40.215
  C       88.692      -2.541     -38.884
  O       89.800      -2.684     -38.366
  N       87.544      -2.831     -38.191
  C       86.403      -2.815     -38.806
  N       85.293      -3.107     -38.076
  C       86.266      -2.504     -40.242
  C       87.385      -2.153     -40.872
  O       86.648      -2.149     -43.633
  O       87.224      -0.998     -45.856
  H       90.535      -4.397     -40.273
  H       86.352      -1.245     -43.418
  H       85.295      -2.541     -40.715
  H       87.376      -1.886     -41.920
  H       90.549      -1.413     -40.156
  H       89.636      -3.556     -42.161
  H       91.503      -2.903     -43.563
  H       91.251      -0.162     -43.012
  H       85.415      -3.331     -37.097
  H       89.070      -0.197     -44.284
  H       84.362      -3.120     -38.471
  H       90.439      -0.924     -45.141
  P       93.807      -2.909     -42.304
  C       95.088      -3.646     -44.403
  O       93.921      -3.026     -43.899
  O       93.199      -4.344     -41.921
  O       95.067      -2.639     -41.553
  H       93.897      -5.021     -41.975
  H       94.973      -3.782     -45.482
  H       95.235      -4.623     -43.937
  H       95.957      -3.007     -44.220
  H       87.042      -5.609     -45.312
  H       86.614      -4.618     -43.939
  H       88.291      -4.809     -44.389

 3  4  5  6  7  8  9  10  11  12  13  21  23  27  28  29  30  32 0
 6-311+G(2d,p)
 ****
 34  35 0
 6-311+G(2d,p)
 ****
 1  2  14  15  16  17  18  19  20  22  24  25  26 0
 3-21G
 ****
 31  33  36  37  38  39  40  41  42  43  44  45  46 0
 3-21G
 ****


