%nproc=1
%NoSave
%Mem=1900MB
#P OB98/GEN NMR

erre ene a

0 1
  C      763.376    1060.412     337.941
  O      762.312    1060.739     337.080
  H      763.260    1060.972     338.869
  H      764.334    1060.678     337.485
  H      763.372    1059.344     338.188
  P      762.184    1059.856     335.739
  C      760.918    1058.047     337.115
  O      760.931    1058.870     335.964
  C      759.469    1057.685     337.498
  O      758.817    1058.849     338.078
  C      758.613    1057.237     336.320
  O      758.802    1055.882     336.025
  C      757.222    1057.491     336.902
  O      756.888    1056.411     337.821
  C      757.425    1058.800     337.652
  N      753.770    1061.738     335.694
  C      753.667    1060.582     336.462
  N      752.429    1060.124     336.703
  N      754.722    1059.911     336.901
  C      755.894    1060.477     336.572
  C      756.115    1061.627     335.822
  C      754.972    1062.349     335.338
  O      754.994    1063.379     334.696
  N      757.457    1061.875     335.693
  C      758.056    1060.875     336.342
  N      757.138    1059.995     336.866
  O      763.451    1058.869     335.815
  O      762.183    1060.626     334.458
  H      756.729    1055.618     337.279
  H      763.793    1058.719     334.919
  H      752.951    1062.198     335.369
  H      759.115    1060.766     336.443
  H      756.816    1058.863     338.569
  H      756.438    1057.490     336.147
  H      751.583    1060.577     336.331
  H      758.757    1057.902     335.439
  H      752.329    1059.280     337.268
  H      759.521    1056.901     338.267
  H      761.395    1058.581     337.940
  H      761.504    1057.133     336.909
  P      758.399    1055.385     334.519
  C      760.924    1055.204     333.893
  O      759.661    1054.526     334.000
  O      758.471    1056.734     333.680
  O      757.081    1054.714     334.426
  H      757.906    1056.645     332.874
  H      761.667    1054.520     333.540
  H      761.211    1055.577     334.854
  H      760.834    1056.019     333.206

 6  7  8  9  10  11  12  13  14  15  26  29  33  34 0
 6-311+G(2d,p)
 ****
 36  38  39  40  41 0
 6-311+G(2d,p)
 ****
 1  2  3  4  5  16  17  18  19  20  21  22  23  24  25 0
 3-21G
 ****
 27  28  30  31  32  35  37  42  43  44  45  46  47 0
 3-21G
 ****
 48  49 0
 3-21G
 ****


