%nproc=1
%NoSave
%Mem=1900MB
#P OB98/GEN NMR

erre ene a

0 1
  C      566.539    -898.560     774.156
  O      567.129    -898.050     772.971
  H      567.067    -898.130     775.018
  H      566.647    -899.650     774.185
  H      565.494    -898.290     774.217
  P      566.530    -898.530     771.563
  C      565.204    -896.320     771.287
  O      565.146    -897.740     771.433
  C      564.710    -895.910     769.909
  O      563.337    -896.300     769.692
  C      564.733    -894.400     769.627
  O      566.032    -893.870     769.441
  C      563.879    -894.350     768.384
  O      564.664    -894.800     767.259
  C      562.765    -895.360     768.740
  N      561.576    -894.700     769.306
  C      560.843    -893.880     768.443
  O      561.201    -893.720     767.288
  N      559.735    -893.220     768.942
  C      559.407    -893.370     770.201
  N      558.306    -892.700     770.616
  C      560.161    -894.210     771.124
  C      561.225    -894.840     770.616
  O      566.454    -900.000     771.349
  O      567.437    -897.770     770.472
  H      564.086    -894.800     766.476
  H      567.120    -898.050     769.572
  H      559.860    -894.280     772.179
  H      561.829    -895.490     771.248
  H      562.471    -895.930     767.856
  H      563.521    -893.340     768.145
  H      564.212    -893.860     770.453
  H      565.322    -896.450     769.155
  H      557.821    -892.110     769.940
  H      566.232    -896.010     771.457
  H      558.029    -892.690     771.601
  H      564.552    -895.850     772.041
  P      566.488    -892.640     770.386
  C      568.302    -893.940     771.735
  O      567.038    -893.320     771.746
  O      565.071    -892.010     770.827
  O      567.390    -891.650     769.769
  H      564.868    -891.230     770.277
  H      568.513    -894.336     772.706
  H      569.050    -893.221     771.473
  H      568.304    -894.734     771.018

 6  7  8  9  10  11  12  13  14  15  16  26  30  31  32  33  35 0
 6-311+G(2d,p)
 ****
 37  38 0
 6-311+G(2d,p)
 ****
 1  2  3  4  5  17  18  19  20  21  22  23  24  25 0
 3-21G
 ****
 27  28  29  34  36  39  40  41  42  43  44  45  46 0
 3-21G
 ****


