%nproc=1
%NoSave
%Mem=1900MB
#P OB98/GEN NMR

erre ene a

0 1
  C       55.160     321.147    -298.852
  O       54.282     321.996    -299.562
  H       55.749     320.573    -299.569
  H       54.583     320.450    -298.233
  H       55.836     321.733    -298.224
  P       53.445     323.060    -298.692
  C       54.541     325.282    -299.565
  O       53.425     324.408    -299.562
  C       54.654     326.002    -300.910
  O       55.208     325.082    -301.883
  C       53.317     326.507    -301.451
  O       53.541     327.743    -302.135
  C       52.922     325.442    -302.464
  O       52.016     325.938    -303.444
  C       54.302     325.016    -303.003
  N       54.280     323.686    -303.607
  C       53.838     323.605    -304.933
  O       53.480     324.619    -305.527
  N       53.774     322.376    -305.534
  C       54.059     321.312    -304.857
  N       53.952     320.115    -305.501
  C       54.486     321.343    -303.445
  C       54.579     322.553    -302.890
  O       54.466     323.384    -297.505
  O       52.110     322.570    -298.243
  H       51.862     325.232    -304.109
  H       55.379     323.525    -297.805
  H       54.701     320.427    -302.912
  H       54.892     322.672    -301.857
  H       54.654     325.734    -303.757
  H       52.442     324.600    -301.955
  H       52.571     326.647    -300.671
  H       55.374     326.822    -300.804
  H       53.635     320.138    -306.461
  H       55.464     324.722    -299.373
  H       54.095     319.222    -305.054
  H       54.409     326.007    -298.757
  P       52.295     328.656    -302.546
  C       52.863     330.561    -300.890
  O       52.642     330.194    -302.243
  O       50.966     328.194    -302.053
  O       52.335     328.604    -304.153
  H       51.415     328.526    -304.473
  H       53.083     331.607    -300.835
  H       53.688     330.002    -300.499
  H       51.985     330.350    -300.315

 6  7  8  9  10  11  12  13  14  15  16  26  30  31  32  33  35 0
 6-311+G(2d,p)
 ****
 37  38 0
 6-311+G(2d,p)
 ****
 1  2  3  4  5  17  18  19  20  21  22  23  24  25 0
 3-21G
 ****
 27  28  29  34  36  39  40  41  42  43  44  45  46 0
 3-21G
 ****


