%nproc=1
%NoSave
%Mem=1900MB
#P OB98/GEN NMR

erre ene a

0 1
  C     -360.718     101.140      40.053
  O     -360.214      99.823      39.953
  H     -360.473     101.679      39.134
  H     -360.246     101.652      40.896
  H     -361.804     101.140      40.182
  P     -360.732      98.719      40.989
  C     -362.985      97.714      40.230
  O     -361.569      97.636      40.149
  C     -363.626      96.334      40.010
  O     -363.109      95.754      38.785
  C     -363.251      95.380      41.149
  O     -364.254      94.388      41.370
  C     -361.992      94.710      40.625
  O     -361.722      93.459      41.253
  C     -362.312      94.607      39.136
  N     -358.794      91.671      36.905
  C     -359.768      91.321      37.814
  N     -359.797      90.025      38.196
  N     -360.629      92.174      38.315
  C     -360.433      93.446      37.899
  C     -359.483      93.922      37.023
  C     -358.564      92.964      36.445
  O     -357.663      93.221      35.646
  N     -359.583      95.281      36.859
  C     -360.585      95.632      37.640
  N     -361.141      94.552      38.282
  O     -361.878      99.480      41.816
  O     -359.687      98.146      41.900
  H     -360.850      93.155      40.939
  H     -361.991      99.074      42.694
  H     -358.165      90.977      36.538
  H     -360.944      96.646      37.773
  H     -362.909      93.700      38.928
  H     -361.138      95.366      40.833
  H     -359.057      89.380      37.978
  H     -363.067      95.911      42.082
  H     -360.300      89.817      39.064
  H     -364.710      96.438      39.881
  H     -363.317      98.410      39.457
  H     -363.289      98.124      41.198
  P     -365.375      94.701      42.470
  C     -367.281      95.971      41.181
  O     -366.793      94.754      41.721
  O     -365.090      96.217      42.876
  O     -365.339      93.781      43.647
  H     -364.668      96.260      43.757
  H     -368.234      95.802      40.726
  H     -366.594      96.336      40.446
  H     -367.383      96.693      41.964

 6  7  8  9  10  11  12  13  14  15  26  29  33  34 0
 6-311+G(2d,p)
 ****
 36  38  39  40  41 0
 6-311+G(2d,p)
 ****
 1  2  3  4  5  16  17  18  19  20  21  22  23  24  25 0
 3-21G
 ****
 27  28  30  31  32  35  37  42  43  44  45  46  47 0
 3-21G
 ****
 48  49 0
 3-21G
 ****


