%nproc=1
%NoSave
%Mem=1900MB
#P OB98/GEN NMR

erre ene a

0 1
  C     -559.957     264.088     464.528
  O     -559.029     263.158     463.980
  P     -557.842     263.740     463.068
  C     -556.210     261.712     463.383
  O     -557.052     262.460     462.516
  C     -555.411     260.671     462.591
  O     -556.306     259.684     462.013
  C     -554.642     261.251     461.414
  O     -553.490     261.955     461.848
  C     -554.366     259.997     460.612
  O     -553.247     259.275     461.159
  C     -555.657     259.184     460.824
  N     -556.567     259.215     459.676
  C     -557.021     257.964     459.230
  O     -556.678     256.904     459.752
  N     -557.870     257.987     458.163
  C     -558.279     259.100     457.488
  O     -559.058     259.061     456.544
  C     -557.726     260.380     457.967
  C     -556.908     260.380     459.024
  O     -556.870     264.349     464.185
  O     -558.317     264.707     462.038
  H     -556.861     263.830     465.011
  H     -552.516     259.914     461.229
  H     -558.227     257.099     457.839
  H     -558.008     261.281     457.438
  H     -556.476     261.312     459.392
  H     -555.414     258.136     461.034
  H     -554.138     260.217     459.554
  H     -555.279     261.928     460.838
  H     -554.734     260.165     463.280
  H     -556.807     261.199     464.146
  H     -555.543     262.400     463.912
  P     -553.425     263.528     461.507
  C     -551.076     263.473     462.671
  O     -551.871     263.944     461.606
  O     -554.077     264.149     462.828
  O     -554.106     263.889     460.237
  H     -553.756     263.751     463.649
  H     -550.022     263.566     462.387
  H     -551.286     262.425     462.890
  H     -551.253     264.082     463.569
  H     -560.687     263.564     465.109
  H     -560.444     264.615     463.735
  H     -559.437     264.784     465.153

 3  4  5  6  7  8  9  10  11  12  13  24  28  29  30  31  32 0
 6-311+G(2d,p)
 ****
 33  34 0
 6-311+G(2d,p)
 ****
 1  2  14  15  16  17  18  19  20  21  22  23  25  26  27 0
 3-21G
 ****
 35  36  37  38  39  40  41  42  43  44  45 0
 3-21G
 ****


