%nproc=1
%NoSave
%Mem=1900MB
#P OB98/GEN NMR

erre ene a

0 1
  C      129.843      46.168      31.793
  O      128.684      45.396      32.018
  P      127.284      46.081      32.383
  C      126.344      47.218      34.496
  O      127.513      46.901      33.748
  C      125.756      45.949      35.125
  O      125.339      45.047      34.052
  C      126.768      45.196      36.011
  O      126.298      44.906      37.328
  C      127.122      43.986      35.162
  O      127.657      42.903      35.899
  C      125.806      43.733      34.417
  N      125.977      42.861      33.259
  C      125.369      41.610      33.312
  O      124.698      41.203      34.255
  N      125.606      40.784      32.248
  C      126.463      41.031      31.218
  O      126.704      40.204      30.349
  C      127.107      42.353      31.236
  C      126.824      43.204      32.225
  O      126.110      45.161      32.410
  O      127.165      47.259      31.305
  H      128.385      43.247      36.449
  H      127.885      47.913      31.331
  H      125.172      39.874      32.274
  H      127.800      42.573      30.437
  H      127.284      44.186      32.264
  H      125.055      43.292      35.073
  H      127.892      44.295      34.444
  H      127.668      45.798      36.179
  H      124.870      46.240      35.696
  H      125.606      47.660      33.824
  H      126.583      47.966      35.260
  P      127.223      44.790      38.629
  C      128.548      42.849      39.741
  O      128.017      43.404      38.555
  O      126.532      45.054      39.925
  O      128.369      45.878      38.370
  H      128.694      46.219      39.224
  H      129.427      42.252      39.484
  H      127.801      42.192      40.196
  H      128.839      43.624      40.454
  H      130.664      45.521      31.565
  H      130.070      46.735      32.671
  H      129.675      46.833      30.972

 3  4  5  6  7  8  9  10  11  12  13  23  28  29  30  31  32 0
 6-311+G(2d,p)
 ****
 33  34 0
 6-311+G(2d,p)
 ****
 1  2  14  15  16  17  18  19  20  21  22  24  25  26  27 0
 3-21G
 ****
 35  36  37  38  39  40  41  42  43  44  45 0
 3-21G
 ****


