%nproc=1
%NoSave
%Mem=1900MB
#P OB98/GEN NMR

erre ene a

0 1
  C      165.945     953.694     332.267
  O      165.816     953.258     330.917
  P      166.516     953.961     329.664
  C      169.002     954.774     329.775
  O      168.088     953.693     329.752
  C      170.482     954.326     329.743
  O      170.767     953.502     330.913
  C      170.745     953.437     328.518
  O      171.036     954.029     327.267
  C      171.802     952.452     328.990
  O      173.126     952.869     328.679
  C      171.607     952.402     330.503
  N      172.431     947.530     331.837
  C      173.313     948.466     331.348
  N      174.598     948.042     331.144
  N      173.008     949.700     331.074
  C      171.680     949.968     331.245
  C      170.700     949.121     331.707
  C      171.082     947.780     332.051
  O      170.336     946.898     332.505
  N      169.487     949.737     331.724
  C      169.707     950.946     331.255
  N      171.034     951.140     330.959
  O      166.090     955.365     329.399
  O      166.041     953.063     328.412
  H      173.282     953.732     329.096
  H      165.974     953.670     327.640
  H      172.746     946.589     332.060
  H      168.965     951.728     331.131
  H      172.556     952.535     331.028
  H      171.666     951.478     328.493
  H      174.870     947.076     331.216
  H      169.838     952.842     328.355
  H      175.177     948.660     330.584
  H      171.147     955.179     329.799
  H      168.802     955.348     330.677
  H      168.825     955.435     328.918
  P      170.250     953.746     325.891
  C      167.856     953.039     325.315
  O      168.681     953.799     326.182
  O      170.514     952.198     325.607
  O      170.710     954.573     324.717
  H      170.316     951.974     324.675
  H      166.814     953.410     325.417
  H      167.904     951.982     325.580
  H      168.172     953.160     324.267
  H      165.377     953.050     332.906
  H      165.580     954.696     332.355
  H      166.975     953.663     332.555

 3  4  5  6  7  8  9  10  11  12  23  26  30  31 0
 6-311+G(2d,p)
 ****
 33  35  36  37  38 0
 6-311+G(2d,p)
 ****
 1  2  13  14  15  16  17  18  19  20  21  22  24  25 0
 3-21G
 ****
 27  28  29  32  34  39  40  41  42  43  44  45  46  47  48  49 0
 3-21G
 ****


