%nproc=1
%NoSave
%Mem=1900MB
#P OB98/GEN NMR

erre ene a

0 1
  C       82.320     396.043     195.221
  O       83.302     397.030     195.445
  H       82.796     395.061     195.264
  H       81.884     396.179     194.228
  H       81.531     396.084     195.977
  P       82.834     398.494     195.887
  C       83.733     399.343     193.620
  O       82.668     399.388     194.561
  C       83.218     399.367     192.181
  O       82.469     398.161     191.913
  C       82.271     400.542     191.916
  O       82.920     401.743     191.533
  C       81.408     400.002     190.779
  O       82.001     400.269     189.499
  C       81.373     398.491     191.050
  N       76.606     396.809     190.284
  C       77.503     397.317     189.365
  N       77.055     397.420     188.095
  N       78.713     397.700     189.676
  C       78.983     397.630     190.998
  C       78.167     397.162     192.006
  C       76.855     396.672     191.645
  O       76.031     396.200     192.417
  N       78.767     397.284     193.237
  C       79.905     397.899     192.981
  N       80.116     398.057     191.630
  O       84.151     399.119     196.559
  O       81.679     398.543     196.841
  H       82.133     401.236     189.426
  H       83.892     399.742     197.263
  H       75.700     396.504     189.982
  H       80.626     398.212     193.724
  H       81.510     397.918     190.125
  H       80.425     400.478     190.778
  H       76.108     397.221     187.817
  H       81.626     400.721     192.780
  H       77.611     397.960     187.431
  H       84.070     399.376     191.491
  H       84.274     398.416     193.808
  H       84.428     400.171     193.793
  P       82.934     403.012     192.504
  C       81.422     404.313     190.796
  O       81.695     403.947     192.131
  O       84.196     403.849     191.987
  O       83.024     402.703     193.963
  H       84.973     403.681     192.551
  H       80.554     404.938     190.768
  H       81.246     403.433     190.214
  H       82.258     404.846     190.394

 6  7  8  9  10  11  12  13  14  15  26  29  33  34 0
 6-311+G(2d,p)
 ****
 36  38  39  40  41 0
 6-311+G(2d,p)
 ****
 1  2  3  4  5  16  17  18  19  20  21  22  23  24  25 0
 3-21G
 ****
 27  28  30  31  32  35  37  42  43  44  45  46  47 0
 3-21G
 ****
 48  49 0
 3-21G
 ****


