%nproc=1
%NoSave
%Mem=1900MB
#P OB98/GEN NMR

erre ene a

0 1
  C     1073.578     467.794    -530.974
  O     1073.372     468.938    -530.131
  P     1074.521     470.057    -530.043
  C     1073.168     472.147    -529.245
  O     1074.139     471.159    -528.934
  C     1071.743     471.601    -529.106
  O     1071.615     470.849    -527.860
  C     1070.650     472.672    -529.111
  O     1069.488     472.090    -529.737
  C     1070.390     472.879    -527.620
  O     1069.144     473.476    -527.344
  C     1070.513     471.432    -527.131
  N     1070.747     471.308    -525.695
  C     1069.737     470.725    -524.925
  O     1068.650     470.364    -525.354
  N     1070.009     470.597    -523.583
  C     1071.156     471.013    -522.942
  O     1071.332     470.892    -521.731
  C     1072.170     471.643    -523.799
  C     1071.915     471.751    -525.109
  O     1074.312     470.865    -531.410
  O     1075.926     469.526    -529.966
  H     1069.118     473.671    -526.385
  H     1075.164     471.011    -531.837
  H     1069.300     470.164    -523.019
  H     1073.083     471.976    -523.339
  H     1072.658     472.212    -525.767
  H     1069.621     470.875    -527.404
  H     1071.167     473.532    -527.209
  H     1070.940     473.587    -529.632
  H     1071.585     470.881    -529.935
  H     1073.325     472.497    -530.284
  H     1073.317     473.011    -528.578
  P     1069.201     472.444    -531.288
  C     1068.274     470.203    -532.274
  O     1068.017     471.480    -531.755
  O     1070.492     471.761    -531.963
  O     1069.066     473.886    -531.579
  H     1070.680     470.882    -531.614
  H     1069.061     469.692    -531.702
  H     1068.567     470.271    -533.309
  H     1067.371     469.609    -532.209
  H     1072.724     467.152    -530.918
  H     1074.447     467.262    -530.647
  H     1073.717     468.116    -531.985

 3  4  5  6  7  8  9  10  11  12  13  23  28  29  30  31  32 0
 6-311+G(2d,p)
 ****
 33  34 0
 6-311+G(2d,p)
 ****
 1  2  14  15  16  17  18  19  20  21  22  24  25  26 0
 3-21G
 ****
 27  35  36  37  38  39  40  41  42  43  44  45 0
 3-21G
 ****


