%nproc=1
%NoSave
%Mem=1900MB
#P OB98/GEN NMR

erre ene a

0 1
  C     -326.675     -99.158    -200.951
  O     -326.456     -97.940    -200.233
  P     -325.779     -96.699    -200.987
  C     -323.463     -95.602    -201.182
  O     -324.196     -96.724    -200.713
  C     -322.002     -95.618    -200.706
  O     -321.910     -95.233    -199.309
  C     -321.307     -96.980    -200.851
  O     -319.941     -96.718    -201.192
  C     -321.411     -97.545    -199.449
  O     -320.489     -98.599    -199.218
  C     -321.191     -96.276    -198.619
  N     -321.639     -96.420    -197.245
  C     -320.657     -96.439    -196.252
  O     -319.467     -96.434    -196.562
  N     -321.054     -96.486    -194.937
  C     -322.309     -96.658    -194.651
  N     -322.665     -96.685    -193.341
  C     -323.352     -96.830    -195.682
  C     -322.953     -96.674    -196.942
  O     -326.436     -95.377    -200.767
  O     -325.872     -97.132    -202.533
  H     -319.576     -98.259    -199.335
  H     -326.017     -96.335    -203.074
  H     -324.371     -97.056    -195.399
  H     -323.647     -96.771    -197.766
  H     -320.130     -95.993    -198.616
  H     -322.420     -97.940    -199.284
  H     -321.750     -97.618    -201.622
  H     -321.454     -94.865    -201.289
  H     -321.935     -96.592    -192.644
  H     -323.946     -94.685    -200.827
  H     -323.629     -96.764    -193.038
  H     -323.520     -95.571    -202.277
  P     -319.353     -97.314    -202.562
  C     -317.517     -99.027    -203.233
  O     -318.202     -98.365    -202.189
  O     -318.494     -96.071    -203.117
  O     -320.362     -97.730    -203.583
  H     -318.419     -96.149    -204.084
  H     -316.605     -99.475    -202.822
  H     -317.234     -98.328    -204.025
  H     -318.145     -99.817    -203.649
  H     -327.132     -99.877    -200.303
  H     -325.739     -99.538    -201.302
  H     -327.319     -98.970    -201.785

 3  4  5  6  7  8  9  10  11  12  13  23  27  28  29  30  32 0
 6-311+G(2d,p)
 ****
 34  35 0
 6-311+G(2d,p)
 ****
 1  2  14  15  16  17  18  19  20  21  22  24  25  26 0
 3-21G
 ****
 31  33  36  37  38  39  40  41  42  43  44  45  46 0
 3-21G
 ****


