%nproc=1
%NoSave
%Mem=1900MB
#P OB98/GEN NMR

erre ene a

0 1
  C     -270.095    -363.014     584.211
  O     -270.421    -364.359     584.506
  P     -271.915    -364.924     584.468
  C     -271.786    -365.953     582.083
  O     -271.948    -366.191     583.477
  C     -270.968    -367.040     581.382
  O     -269.588    -366.957     581.795
  C     -271.455    -368.433     581.808
  O     -272.573    -369.020     581.168
  C     -270.202    -369.301     581.838
  O     -270.049    -370.084     580.654
  C     -269.069    -368.285     581.961
  N     -265.148    -370.302     584.460
  C     -265.381    -370.254     583.100
  N     -264.554    -371.002     582.334
  N     -266.341    -369.556     582.548
  C     -267.144    -368.942     583.459
  C     -267.005    -368.900     584.824
  C     -265.913    -369.645     585.413
  O     -265.720    -369.787     586.623
  N     -268.040    -368.240     585.429
  C     -268.834    -367.908     584.429
  N     -268.341    -368.343     583.220
  O     -273.013    -363.913     584.373
  O     -272.028    -365.622     585.918
  H     -270.853    -370.609     580.532
  H     -272.950    -365.515     586.227
  H     -264.440    -370.924     584.828
  H     -269.772    -367.386     584.525
  H     -268.334    -368.426     581.162
  H     -270.244    -370.007     582.673
  H     -263.899    -371.659     582.731
  H     -271.765    -368.345     582.858
  H     -264.802    -371.121     581.356
  H     -270.957    -366.896     580.296
  H     -271.304    -364.977     581.973
  H     -272.765    -365.883     581.609
  P     -273.290    -370.388     581.578
  C     -275.430    -369.749     582.829
  O     -274.871    -370.151     581.589
  O     -272.942    -370.562     583.138
  O     -272.832    -371.594     580.811
  H     -273.021    -371.501     583.389
  H     -276.510    -369.910     582.802
  H     -275.229    -368.684     582.991
  H     -274.999    -370.327     583.655
  H     -269.038    -362.875     584.303
  H     -270.601    -362.366     584.896
  H     -270.400    -362.784     583.211

 3  4  5  6  7  8  9  10  11  12  23  26  30  31 0
 6-311+G(2d,p)
 ****
 33  35  36  37  38 0
 6-311+G(2d,p)
 ****
 1  2  13  14  15  16  17  18  19  20  21  22  24  25 0
 3-21G
 ****
 27  28  29  32  34  39  40  41  42  43  44  45  46  47  48  49 0
 3-21G
 ****


