%nproc=1
%NoSave
%Mem=1900MB
#P OB98/GEN NMR

erre ene a

0 1
  C      334.284     233.351     -14.776
  O      334.111     233.925     -13.476
  P      334.922     235.240     -13.015
  C      336.402     234.139     -11.226
  O      336.381     234.836     -12.462
  C      337.661     234.405     -10.395
  O      338.861     234.165     -11.185
  C      337.788     235.834      -9.844
  O      338.495     235.718      -8.608
  C      338.647     236.514     -10.890
  O      339.261     237.712     -10.434
  C      339.622     235.394     -11.222
  N      344.038     235.036     -13.804
  C      343.677     234.616     -12.574
  N      342.476     234.718     -11.969
  C      341.574     235.279     -12.786
  C      341.786     235.752     -14.073
  C      343.094     235.624     -14.585
  N      343.473     236.094     -15.822
  N      340.625     236.299     -14.597
  C      339.741     236.173     -13.632
  N      340.257     235.559     -12.520
  O      334.151     236.136     -12.102
  O      335.242     235.999     -14.385
  H      339.858     238.032     -11.140
  H      335.043     236.951     -14.280
  H      344.468     234.147     -11.988
  H      338.712     236.521     -13.676
  H      340.411     235.319     -10.466
  H      338.014     236.774     -11.758
  H      336.815     236.324      -9.698
  H      337.681     233.681      -9.572
  H      336.322     233.057     -11.428
  H      344.454     236.042     -16.058
  H      342.823     236.643     -16.361
  H      335.513     234.429     -10.648
  P      337.740     235.629      -7.196
  C      337.948     237.979      -6.208
  O      337.109     237.077      -6.920
  O      338.558     235.065      -6.079
  O      336.451     234.718      -7.492
  H      336.104     234.362      -6.661
  H      337.966     237.715      -5.142
  H      337.544     239.000      -6.323
  H      338.961     237.963      -6.606
  H      333.655     232.491     -14.873
  H      335.306     233.062     -14.905
  H      334.020     234.071     -15.522

 3  4  5  6  7  8  9  10  11  12  22  25  29  30  31  32 0
 6-311+G(2d,p)
 ****
 33  36  37 0
 6-311+G(2d,p)
 ****
 1  2  13  14  15  16  17  18  19  20  21  23  24  26 0
 3-21G
 ****
 27  28  34  35  38  39  40  41  42  43  44  45  46  47  48 0
 3-21G
 ****


