%nproc=1
%NoSave
%Mem=1900MB
#P OB98/GEN NMR

erre ene a

0 1
  C     1024.730    1839.147    -893.850
  O     1025.048    1838.355    -894.970
  P     1026.589    1837.990    -895.230
  C     1025.689    1835.637    -895.920
  O     1026.590    1836.692    -896.180
  C     1025.487    1834.783    -897.140
  O     1026.749    1834.225    -897.590
  C     1024.563    1833.624    -896.960
  O     1023.184    1834.016    -896.940
  C     1024.918    1832.723    -898.130
  O     1024.176    1833.080    -899.310
  C     1026.424    1833.031    -898.320
  N     1027.286    1831.923    -897.900
  C     1027.359    1830.853    -898.820
  O     1026.734    1830.860    -899.870
  N     1028.118    1829.764    -898.470
  C     1028.751    1829.746    -897.320
  N     1029.510    1828.642    -897.050
  C     1028.667    1830.841    -896.350
  C     1027.938    1831.874    -896.700
  O     1027.070    1837.409    -893.810
  O     1027.436    1839.170    -895.690
  H     1024.439    1832.441    -900.000
  H     1028.023    1837.542    -893.680
  H     1029.216    1830.777    -895.380
  H     1027.799    1832.727    -896.020
  H     1026.623    1833.254    -899.390
  H     1024.720    1831.665    -897.940
  H     1024.798    1833.074    -896.010
  H     1025.110    1835.439    -897.950
  H     1029.512    1827.880    -897.730
  H     1024.703    1836.068    -895.590
  H     1030.057    1828.557    -896.210
  H     1026.095    1835.040    -895.070
  P     1022.224    1833.423    -895.810
  C     1020.610    1835.063    -896.940
  O     1020.755    1833.814    -896.300
  O     1022.449    1834.445    -894.600
  O     1022.419    1832.009    -895.400
  H     1021.992    1834.148    -893.800
  H     1019.606    1835.148    -897.360
  H     1021.328    1835.154    -897.750
  H     1020.721    1835.885    -896.230
  H     1023.672    1839.303    -893.812
  H     1025.227    1840.091    -893.928
  H     1025.049    1838.649    -892.959

 3  4  5  6  7  8  9  10  11  12  13  21  23  27  28  29  30  32 0
 6-311+G(2d,p)
 ****
 34  35 0
 6-311+G(2d,p)
 ****
 1  2  14  15  16  17  18  19  20  22  24  25  26 0
 3-21G
 ****
 31  33  36  37  38  39  40  41  42  43  44  45  46 0
 3-21G
 ****


