%nproc=1
%NoSave
%Mem=1900MB
#P OB98/GEN NMR

erre ene a

0 1
  C     -269.405     331.607     217.682
  O     -269.238     330.524     218.584
  P     -270.277     330.398     219.805
  C     -268.212     330.487     221.437
  O     -269.504     330.966     221.092
  C     -267.819     330.997     222.828
  O     -267.407     332.376     222.747
  C     -268.945     330.972     223.855
  O     -269.182     329.660     224.350
  C     -268.419     331.960     224.891
  O     -267.454     331.323     225.747
  C     -267.729     333.012     224.002
  N     -268.539     334.213     223.792
  C     -268.244     335.305     224.604
  O     -267.352     335.289     225.453
  N     -269.022     336.418     224.415
  C     -270.081     336.517     223.561
  O     -270.776     337.525     223.461
  C     -270.372     335.323     222.756
  C     -269.597     334.241     222.906
  O     -270.297     328.813     220.009
  O     -271.596     331.022     219.515
  H     -269.465     328.400     219.719
  H     -267.054     332.033     226.286
  H     -268.811     337.229     224.974
  H     -271.211     335.361     222.076
  H     -269.801     333.350     222.326
  H     -266.774     333.321     224.447
  H     -269.214     332.359     225.532
  H     -269.866     331.363     223.408
  H     -266.963     330.405     223.179
  H     -267.489     330.843     220.700
  H     -268.225     329.394     221.420
  P     -270.488     329.463     225.268
  C     -269.098     328.666     227.338
  O     -269.991     329.607     226.787
  O     -270.756     327.895     225.085
  O     -271.631     330.337     224.875
  H     -269.939     327.364     225.118
  H     -268.617     329.109     228.211
  H     -268.332     328.373     226.616
  H     -269.658     327.777     227.653
  H     -268.648     331.563     216.927
  H     -269.324     332.531     218.215
  H     -270.370     331.544     217.223

 3  4  5  6  7  8  9  10  11  12  13  24  28  29  30  31  32 0
 6-311+G(2d,p)
 ****
 33  34 0
 6-311+G(2d,p)
 ****
 1  2  14  15  16  17  18  19  20  21  22  23  25  26  27 0
 3-21G
 ****
 35  36  37  38  39  40  41  42  43  44  45 0
 3-21G
 ****


