%nproc=1
%NoSave
%Mem=1900MB
#P OB98/GEN NMR

erre ene a

0 1
  C      189.440     -25.754     -12.064
  O      190.045     -26.116     -10.840
  H      190.028     -24.952     -12.520
  H      188.426     -25.386     -11.890
  H      189.414     -26.603     -12.753
  P      189.477     -27.387     -10.045
  C      187.106     -27.950      -9.202
  O      188.093     -26.938      -9.374
  C      186.047     -27.480      -8.208
  O      186.632     -27.326      -6.896
  C      185.447     -26.121      -8.545
  O      184.526     -26.209      -9.617
  C      184.845     -25.733      -7.205
  O      183.566     -26.352      -7.015
  C      185.880     -26.301      -6.209
  N      186.763     -25.261      -5.683
  C      186.313     -24.590      -4.549
  O      185.246     -24.838      -3.991
  N      187.111     -23.567      -4.108
  C      188.209     -23.076      -4.757
  O      188.744     -22.011      -4.463
  C      188.671     -23.863      -5.911
  C      187.932     -24.896      -6.322
  O      190.442     -28.058      -9.125
  O      189.001     -28.378     -11.211
  H      189.669     -29.081     -11.328
  H      183.103     -25.807      -6.346
  H      186.769     -23.048      -3.310
  H      189.580     -23.547      -6.410
  H      188.233     -25.471      -7.193
  H      185.374     -26.790      -5.367
  H      184.708     -24.654      -7.125
  H      186.247     -25.412      -8.792
  H      185.265     -28.248      -8.145
  H      187.593     -28.854      -8.816
  H      186.654     -28.176     -10.174
  P      184.585     -25.156     -10.822
  C      184.488     -22.605     -11.134
  O      184.334     -23.689     -10.222
  O      183.745     -25.500     -12.009
  O      186.137     -25.111     -11.222
  H      186.217     -25.228     -12.189
  H      184.298     -21.682     -10.627
  H      183.795     -22.717     -11.942
  H      185.487     -22.601     -11.518

 6  7  8  9  10  11  12  13  14  15  16  27  31  32  33  34  35 0
 6-311+G(2d,p)
 ****
 36  37 0
 6-311+G(2d,p)
 ****
 1  2  3  4  5  17  18  19  20  21  22  23  24  25 0
 3-21G
 ****
 26  28  29  30  38  39  40  41  42  43  44  45 0
 3-21G
 ****


