%nproc=1
%NoSave
%Mem=1900MB
#P OB98/GEN NMR

erre ene a

0 1
  C      365.028      75.101     174.490
  O      364.277      76.171     175.016
  H      364.338      74.357     174.083
  H      365.613      74.637     175.288
  H      365.696      75.434     173.691
  P      365.003      77.576     175.255
  C      363.872      78.693     173.222
  O      364.077      78.731     174.629
  C      363.200      79.969     172.714
  O      361.809      79.971     173.103
  C      363.826      81.238     173.305
  O      364.941      81.733     172.586
  C      362.658      82.218     173.249
  O      362.612      82.906     171.987
  C      361.429      81.320     173.416
  N      359.441      84.232     177.119
  C      360.082      84.622     175.958
  N      360.241      85.954     175.790
  N      360.533      83.781     175.066
  C      360.390      82.483     175.419
  C      359.791      81.976     176.552
  C      359.226      82.915     177.499
  O      358.638      82.618     178.532
  N      359.868      80.604     176.591
  C      360.588      80.295     175.531
  N      360.857      81.393     174.749
  O      366.240      77.534     174.235
  O      365.480      77.826     176.653
  H      363.484      83.321     171.838
  H      366.984      78.043     174.605
  H      359.090      84.925     177.754
  H      360.898      79.292     175.257
  H      360.632      81.597     172.713
  H      362.757      82.987     174.021
  H      359.989      86.639     176.481
  H      364.090      81.084     174.354
  H      360.868      86.273     175.050
  H      363.228      79.981     171.619
  H      363.236      77.831     173.021
  H      364.822      78.530     172.703
  P      365.795      82.963     173.143
  C      366.781      81.518     175.100
  O      367.002      82.387     174.012
  O      364.826      83.611     174.240
  O      366.228      83.960     172.119
  H      364.357      84.382     173.871
  H      367.719      81.253     175.541
  H      366.287      80.634     174.756
  H      366.169      82.007     175.829

 6  7  8  9  10  11  12  13  14  15  26  29  33  34 0
 6-311+G(2d,p)
 ****
 36  38  39  40  41 0
 6-311+G(2d,p)
 ****
 1  2  3  4  5  16  17  18  19  20  21  22  23  24  25 0
 3-21G
 ****
 27  28  30  31  32  35  37  42  43  44  45  46  47 0
 3-21G
 ****
 48  49 0
 3-21G
 ****


