%nproc=1
%NoSave
%Mem=1900MB
#P OB98/GEN NMR

erre ene a

0 1
  C       40.011     653.889     576.614
  O       39.162     654.948     576.192
  H       40.989     654.314     576.877
  H       40.150     653.168     575.807
  H       39.596     653.397     577.498
  P       37.668     654.578     575.745
  C       36.048     655.806     577.351
  O       36.788     654.614     577.089
  C       36.173     656.185     578.818
  O       37.556     656.389     579.169
  C       35.435     657.474     579.189
  O       34.053     657.216     579.376
  C       36.158     657.848     580.475
  O       35.698     657.018     581.553
  C       37.617     657.491     580.121
  N       39.686     662.061     580.892
  C       38.923     661.272     581.744
  N       38.644     661.807     582.957
  N       38.461     660.094     581.423
  C       38.779     659.726     580.157
  C       39.505     660.421     579.220
  C       40.056     661.706     579.602
  O       40.742     662.429     578.889
  N       39.555     659.758     578.013
  C       38.874     658.641     578.233
  N       38.374     658.580     579.519
  O       37.503     653.317     574.948
  O       37.172     655.872     574.944
  H       36.066     656.126     581.399
  H       37.347     655.783     573.987
  H       39.997     662.969     581.196
  H       38.727     657.854     577.516
  H       38.185     657.147     580.995
  H       35.998     658.885     580.774
  H       38.721     662.793     583.132
  H       35.601     658.267     578.453
  H       38.046     661.259     583.572
  H       35.802     655.344     579.421
  H       35.001     655.602     577.093
  H       36.415     656.627     576.715
  P       33.024     657.206     578.135
  C       31.580     655.303     579.141
  O       32.457     655.704     578.090
  O       33.603     657.686     576.842
  O       31.772     658.039     578.641
  H       31.841     659.017     578.466
  H       31.281     654.287     578.988
  H       30.715     655.933     579.144
  H       32.086     655.388     580.080

 6  7  8  9  10  11  12  13  14  15  26  29  33  34 0
 6-311+G(2d,p)
 ****
 36  38  39  40  41 0
 6-311+G(2d,p)
 ****
 1  2  3  4  5  16  17  18  19  20  21  22  23  24  25 0
 3-21G
 ****
 27  28  30  31  32  35  37  42  43  44  45  46  47 0
 3-21G
 ****
 48  49 0
 3-21G
 ****


