%nproc=1
%NoSave
%Mem=1900MB
#P OB98/GEN NMR

erre ene a

0 1
  C      416.438    -261.147     -51.286
  O      415.761    -261.221     -50.047
  H      417.520    -261.114     -51.123
  H      416.196    -262.036     -51.873
  H      416.116    -260.259     -51.840
  P      415.962    -259.987     -49.045
  C      413.617    -258.940     -49.418
  O      415.019    -258.808     -49.591
  C      412.993    -257.578     -49.119
  O      413.483    -257.074     -47.861
  C      413.304    -256.499     -50.147
  O      412.481    -256.608     -51.297
  C      412.981    -255.245     -49.349
  O      411.554    -255.038     -49.326
  C      413.481    -255.623     -47.946
  N      416.212    -252.230     -45.261
  C      414.892    -252.518     -45.273
  N      414.241    -253.450     -45.998
  C      415.104    -254.138     -46.767
  C      416.477    -253.974     -46.848
  C      417.037    -252.959     -46.053
  N      418.382    -252.629     -46.104
  N      417.024    -254.855     -47.758
  C      415.991    -255.526     -48.234
  N      414.815    -255.134     -47.660
  O      417.445    -259.484     -49.392
  O      415.812    -260.313     -47.596
  H      411.166    -255.816     -48.887
  H      418.070    -259.868     -48.751
  H      414.276    -251.918     -44.613
  H      416.052    -256.299     -48.990
  H      412.816    -255.257     -47.155
  H      413.431    -254.339     -49.761
  H      414.368    -256.487     -50.412
  H      411.908    -257.721     -49.024
  H      413.415    -259.622     -48.582
  H      418.568    -251.655     -45.883
  H      418.879    -253.023     -46.889
  H      413.189    -259.361     -50.333
  P      413.186    -256.516     -52.737
  C      413.600    -259.053     -53.014
  O      414.184    -257.771     -52.836
  O      414.168    -255.260     -52.564
  O      412.263    -256.324     -53.888
  H      413.976    -254.598     -53.257
  H      414.372    -259.793     -53.064
  H      413.036    -259.065     -53.923
  H      412.953    -259.268     -52.190

 6  7  8  9  10  11  12  13  14  15  25  28  32  33  34  35 0
 6-311+G(2d,p)
 ****
 36  39  40 0
 6-311+G(2d,p)
 ****
 1  2  3  4  5  16  17  18  19  20  21  22  23  24 0
 3-21G
 ****
 26  27  29  30  31  37  38  41  42  43  44  45  46  47  48 0
 3-21G
 ****


