%nproc=1
%NoSave
%Mem=1900MB
#P OB98/GEN NMR

erre ene a

0 1
  C     -258.729    -446.587     287.835
  O     -259.045    -447.803     288.531
  P     -259.458    -449.106     287.690
  C     -262.061    -449.067     287.960
  O     -260.935    -448.898     287.103
  C     -263.336    -448.586     287.257
  O     -263.290    -448.906     285.846
  C     -264.614    -449.232     287.768
  O     -265.038    -448.679     289.006
  C     -265.578    -448.940     286.622
  O     -266.123    -447.612     286.731
  C     -264.651    -449.050     285.398
  N     -264.839    -450.298     284.656
  C     -265.801    -450.275     283.642
  O     -266.505    -449.299     283.403
  N     -265.944    -451.445     282.941
  C     -265.291    -452.617     283.182
  O     -265.480    -453.635     282.523
  C     -264.356    -452.605     284.315
  C     -264.182    -451.464     284.995
  O     -259.707    -450.184     288.848
  O     -258.437    -449.603     286.721
  H     -266.294    -447.458     287.677
  H     -259.538    -451.079     288.504
  H     -266.615    -451.440     282.181
  H     -263.830    -453.521     284.553
  H     -263.493    -451.440     285.833
  H     -264.827    -448.210     284.713
  H     -266.430    -449.632     286.601
  H     -264.484    -450.320     287.850
  H     -263.391    -447.495     287.351
  H     -261.918    -448.484     288.873
  H     -262.142    -450.132     288.229
  P     -264.397    -449.331     290.336
  C     -266.021    -451.375     290.445
  O     -264.714    -450.897     290.225
  O     -265.406    -448.776     291.454
  O     -262.969    -448.957     290.543
  H     -266.310    -448.689     291.115
  H     -266.777    -450.658     290.115
  H     -266.156    -451.578     291.519
  H     -266.152    -452.313     289.892
  H     -258.477    -445.826     288.543
  H     -259.576    -446.274     287.261
  H     -257.898    -446.755     287.182

 3  4  5  6  7  8  9  10  11  12  13  23  28  29  30  31  32 0
 6-311+G(2d,p)
 ****
 33  34 0
 6-311+G(2d,p)
 ****
 1  2  14  15  16  17  18  19  20  21  22  24  25  26 0
 3-21G
 ****
 27  35  36  37  38  39  40  41  42  43  44  45 0
 3-21G
 ****


