%nproc=1
%NoSave
%Mem=1900MB
#P OB98/GEN NMR

erre ene a

0 1
  C     -230.403    -586.063    -212.748
  O     -230.663    -587.399    -213.153
  P     -231.959    -587.676    -214.060
  C     -233.695    -587.796    -212.123
  O     -233.241    -587.100    -213.275
  C     -235.188    -587.555    -211.898
  O     -235.653    -588.384    -210.792
  C     -235.521    -586.099    -211.541
  O     -236.815    -585.767    -212.085
  C     -235.665    -586.128    -210.030
  O     -236.474    -585.050    -209.561
  C     -236.275    -587.510    -209.823
  N     -238.569    -589.492    -205.775
  C     -239.033    -589.347    -207.065
  N     -240.318    -589.712    -207.277
  N     -238.310    -588.910    -208.053
  C     -237.038    -588.581    -207.688
  C     -236.461    -588.689    -206.442
  C     -237.280    -589.167    -205.350
  O     -236.936    -589.291    -204.180
  N     -235.146    -588.290    -206.463
  C     -234.942    -587.898    -207.711
  N     -236.074    -588.023    -208.483
  O     -232.133    -589.262    -213.946
  O     -231.828    -587.244    -215.481
  H     -236.025    -584.223    -209.826
  H     -231.849    -589.686    -214.778
  H     -239.171    -589.830    -205.040
  H     -234.008    -587.504    -208.096
  H     -237.356    -587.516    -210.027
  H     -234.677    -586.043    -209.563
  H     -240.959    -589.998    -206.546
  H     -234.784    -585.365    -211.885
  H     -240.708    -589.578    -208.214
  H     -235.742    -587.870    -212.789
  H     -233.138    -587.457    -211.258
  H     -233.503    -588.875    -212.258
  P     -236.853    -584.496    -213.078
  C     -238.026    -582.935    -211.355
  O     -236.883    -583.206    -212.139
  O     -238.333    -584.556    -213.690
  O     -235.794    -584.516    -214.137
  H     -238.355    -584.120    -214.564
  H     -237.746    -582.985    -210.294
  H     -238.833    -583.645    -211.544
  H     -238.383    -581.928    -211.582
  H     -229.513    -586.037    -212.154
  H     -231.227    -585.698    -212.172
  H     -230.272    -585.447    -213.613

 3  4  5  6  7  8  9  10  11  12  23  26  30  31 0
 6-311+G(2d,p)
 ****
 33  35  36  37  38 0
 6-311+G(2d,p)
 ****
 1  2  13  14  15  16  17  18  19  20  21  22  24  25 0
 3-21G
 ****
 27  28  29  32  34  39  40  41  42  43  44  45  46  47  48  49 0
 3-21G
 ****


