%nproc=1
%NoSave
%Mem=1900MB
#P OB98/GEN NMR

erre ene a

0 1
  C      463.986    -129.976     387.049
  O      463.690    -129.329     388.271
  P      462.192    -129.462     388.834
  C      461.376    -127.364     387.523
  O      461.228    -128.760     387.767
  C      460.013    -126.677     387.565
  O      459.135    -127.245     386.571
  C      459.274    -126.816     388.889
  O      459.823    -125.963     389.877
  C      457.856    -126.465     388.454
  O      457.716    -125.039     388.343
  C      457.776    -127.115     387.061
  N      455.150    -130.577     384.345
  C      455.597    -129.336     384.040
  N      456.269    -128.469     384.823
  C      456.481    -128.995     386.040
  C      456.066    -130.231     386.504
  C      455.374    -131.046     385.598
  N      454.920    -132.306     385.918
  N      456.446    -130.412     387.818
  C      457.090    -129.307     388.139
  N      457.150    -128.426     387.092
  O      462.175    -128.446     390.071
  O      461.796    -130.846     389.240
  H      456.844    -124.866     387.930
  H      461.599    -128.779     390.787
  H      455.386    -128.996     383.024
  H      457.532    -129.104     389.100
  H      457.222    -126.504     386.342
  H      457.093    -126.817     389.155
  H      459.311    -127.857     389.239
  H      460.164    -125.615     387.326
  H      461.816    -127.209     386.534
  H      454.307    -132.763     385.260
  H      454.962    -132.594     386.889
  H      462.051    -126.943     388.272
  P      460.011    -126.571     391.354
  C      457.479    -126.269     391.632
  O      458.567    -127.171     391.710
  O      460.072    -125.245     392.244
  O      461.165    -127.504     391.502
  H      459.343    -124.629     392.030
  H      456.557    -126.815     391.845
  H      457.413    -125.842     390.622
  H      457.595    -125.470     392.367
  H      465.011    -129.806     386.794
  H      463.357    -129.585     386.277
  H      463.814    -131.027     387.151

 3  4  5  6  7  8  9  10  11  12  22  25  29  30  31  32 0
 6-311+G(2d,p)
 ****
 33  36  37 0
 6-311+G(2d,p)
 ****
 1  2  13  14  15  16  17  18  19  20  21  23  24  26 0
 3-21G
 ****
 27  28  34  35  38  39  40  41  42  43  44  45  46  47  48 0
 3-21G
 ****


