%nproc=1
%NoSave
%Mem=1900MB
#P OB98/GEN NMR

erre ene a

0 1
  C      177.841    -304.808     -80.131
  O      176.486    -304.417     -80.216
  H      177.992    -305.334     -79.186
  H      178.500    -303.932     -80.152
  H      178.096    -305.493     -80.952
  P      176.031    -303.517     -81.469
  C      176.918    -301.221     -82.292
  O      177.221    -302.448     -81.638
  C      177.908    -300.133     -81.875
  O      177.697    -299.744     -80.495
  C      179.373    -300.546     -81.931
  O      179.884    -300.615     -83.253
  C      180.003    -299.419     -81.123
  O      180.059    -298.223     -81.920
  C      178.965    -299.273     -79.973
  N      179.338    -300.016     -78.769
  C      179.789    -299.263     -77.679
  O      179.863    -298.032     -77.751
  N      180.190    -299.916     -76.545
  C      180.157    -301.222     -76.494
  N      180.611    -301.821     -75.362
  C      179.674    -302.049     -77.615
  C      179.286    -301.399     -78.715
  O      174.656    -302.941     -81.399
  O      176.266    -304.463     -82.742
  H      180.599    -297.579     -81.420
  H      175.981    -303.953     -83.546
  H      179.676    -303.128     -77.537
  H      178.940    -301.933     -79.587
  H      178.826    -298.217     -79.709
  H      181.013    -299.641     -80.787
  H      179.537    -301.492     -81.401
  H      177.705    -299.248     -82.493
  H      180.978    -301.227     -74.634
  H      175.889    -300.942     -82.031
  H      180.873    -302.804     -75.354
  H      176.985    -301.346     -83.382
  P      181.209    -301.478     -83.509
  C      183.767    -300.946     -83.442
  O      182.455    -300.549     -83.072
  O      181.318    -301.525     -85.100
  O      181.238    -302.844     -82.887
  H      180.897    -302.342     -85.458
  H      184.473    -300.228     -83.079
  H      183.835    -301.005     -84.508
  H      183.983    -301.904     -83.018

 6  7  8  9  10  11  12  13  14  15  16  26  30  31  32  33  35 0
 6-311+G(2d,p)
 ****
 37  38 0
 6-311+G(2d,p)
 ****
 1  2  3  4  5  17  18  19  20  21  22  23  24  25 0
 3-21G
 ****
 27  28  29  34  36  39  40  41  42  43  44  45  46 0
 3-21G
 ****


