%nproc=1
%NoSave
%Mem=1900MB
#P OB98/GEN NMR

erre ene a

0 1
  C      458.927     342.800    -104.767
  O      460.246     342.372    -105.058
  P      460.465     341.450    -106.353
  C      462.969     342.138    -106.330
  O      462.022     341.080    -106.401
  C      464.395     341.607    -106.171
  O      464.553     341.083    -104.826
  C      464.764     340.494    -107.148
  O      466.139     340.667    -107.522
  C      464.636     339.228    -106.318
  O      465.436     338.171    -106.844
  C      465.061     339.741    -104.938
  N      464.559     338.895    -103.856
  C      465.280     337.726    -103.564
  O      466.255     337.423    -104.268
  N      464.864     336.918    -102.543
  C      463.755     337.190    -101.920
  N      463.375     336.361    -100.915
  C      462.883     338.336    -102.275
  C      463.359     339.145    -103.226
  O      460.293     342.488    -107.569
  O      459.513     340.297    -106.465
  H      465.315     337.382    -106.276
  H      459.902     342.050    -108.351
  H      461.948     338.489    -101.756
  H      462.795     340.032    -103.537
  H      466.150     339.782    -104.852
  H      463.589     338.893    -106.312
  H      464.141     340.492    -108.054
  H      465.087     342.453    -106.273
  H      463.978     335.577    -100.695
  H      462.736     342.766    -105.467
  H      462.529     336.492    -100.376
  H      462.886     342.749    -107.235
  P      466.571     340.289    -109.021
  C      468.285     342.206    -109.121
  O      468.079     340.802    -109.162
  O      465.766     341.399    -109.865
  O      466.259     338.918    -109.521
  H      465.895     341.243    -110.822
  H      469.354     342.404    -109.093
  H      467.809     342.631    -108.237
  H      467.859     342.678    -110.030
  H      458.934     343.402    -103.883
  H      458.301     341.946    -104.612
  H      458.549     343.375    -105.587

 3  4  5  6  7  8  9  10  11  12  13  21  23  27  28  29  30  32 0
 6-311+G(2d,p)
 ****
 34  35 0
 6-311+G(2d,p)
 ****
 1  2  14  15  16  17  18  19  20  22  24  25  26 0
 3-21G
 ****
 31  33  36  37  38  39  40  41  42  43  44  45  46 0
 3-21G
 ****


