%nproc=1
%NoSave
%Mem=1900MB
#P OB98/GEN NMR

erre ene a

0 1
  C     -193.489     166.488      33.718
  O     -194.647     167.314      33.916
  P     -195.115     168.197      32.651
  C     -196.640     166.444      31.486
  O     -196.564     167.681      32.194
  C     -198.000     166.253      30.805
  O     -198.965     165.797      31.788
  C     -198.577     167.521      30.159
  O     -199.262     167.143      28.954
  C     -199.637     167.967      31.159
  O     -200.633     168.788      30.550
  C     -200.140     166.614      31.659
  N     -204.678     166.363      33.887
  C     -204.320     166.098      32.575
  N     -205.324     165.733      31.745
  N     -203.099     166.180      32.129
  C     -202.194     166.523      33.084
  C     -202.418     166.804      34.417
  C     -203.792     166.754      34.889
  O     -204.175     167.030      36.019
  N     -201.254     167.118      35.066
  C     -200.322     167.032      34.136
  N     -200.850     166.684      32.911
  O     -194.135     167.708      31.486
  O     -195.004     169.668      32.879
  H     -201.286     168.184      30.136
  H     -193.650     168.472      31.112
  H     -205.643     166.313      34.181
  H     -199.270     167.235      34.280
  H     -200.800     166.141      30.918
  H     -199.160     168.545      31.961
  H     -206.276     165.593      32.039
  H     -197.839     168.297      29.944
  H     -205.074     165.488      30.792
  H     -197.899     165.457      30.060
  H     -196.465     165.619      32.184
  H     -195.840     166.421      30.736
  P     -198.511     167.493      27.576
  C     -196.513     165.833      27.355
  O     -197.869     166.112      27.064
  O     -197.241     168.345      28.047
  O     -199.360     168.225      26.582
  H     -196.960     168.953      27.338
  H     -196.095     166.540      28.080
  H     -195.935     165.901      26.423
  H     -196.435     164.821      27.758
  H     -193.275     165.952      34.619
  H     -192.652     167.103      33.461
  H     -193.678     165.793      32.926

 3  4  5  6  7  8  9  10  11  12  23  26  30  31  33  0
 6-311+G(2d,p)
 ****
 35  36  37  38 0
 6-311+G(2d,p)
 ****
 1  2  13  14  15  16  17  18  19  20  21  22  24  25  27  28  29 0
 3-21G
 ****
 32  34  39  40  41  42  43  44  45  46  47  48  49 0
 3-21G
 ****


