%nproc=1
%NoSave
%Mem=1900MB
#P OB98/GEN NMR

erre ene a

0 1
  C     -148.629      99.731     122.382
  O     -147.980      99.294     121.205
  H     -148.307     100.752     122.603
  H     -148.354      99.086     123.223
  H     -149.713      99.723     122.244
  P     -148.350      97.824     120.682
  C     -145.825      97.419     120.194
  O     -147.159      97.385     119.698
  C     -144.872      96.845     119.152
  O     -145.222      95.469     118.883
  C     -144.922      97.553     117.802
  O     -144.186      98.765     117.809
  C     -144.328      96.489     116.888
  O     -142.893      96.513     116.911
  C     -144.837      95.186     117.519
  N     -146.414      93.570     112.947
  C     -145.212      94.008     113.388
  N     -144.869      94.403     114.632
  C     -145.919      94.305     115.466
  C     -147.204      93.883     115.158
  C     -147.440      93.498     113.827
  N     -148.669      93.086     113.372
  N     -148.018      93.964     116.270
  C     -147.239      94.417     117.232
  N     -145.963      94.632     116.791
  O     -149.581      98.096     119.691
  O     -148.694      96.837     121.745
  H     -142.624      97.384     116.558
  H     -150.420      97.969     120.171
  H     -144.424      94.049     112.640
  H     -147.551      94.614     118.253
  H     -144.064      94.413     117.556
  H     -144.639      96.637     115.852
  H     -145.963      97.732     117.506
  H     -143.852      96.865     119.562
  H     -145.766      96.817     121.109
  H     -145.562      98.456     120.433
  H     -148.771      92.849     112.399
  H     -149.463      93.132     113.998
  P     -144.980     100.143     117.621
  C     -143.681     100.669     115.431
  O     -144.069     101.110     116.722
  O     -144.915     100.804     119.076
  O     -146.383      99.992     117.138
  H     -145.755     100.661     119.553
  H     -143.081     101.421     114.962
  H     -144.554     100.488     114.839
  H     -143.115      99.765     115.518

 6  7  8  9  10  11  12  13  14  15  25  28  32  33  34  35 0
 6-311+G(2d,p)
 ****
 36  37  40 0
 6-311+G(2d,p)
 ****
 1  2  3  4  5  16  17  18  19  20  21  22  23  24 0
 3-21G
 ****
 26  27  29  30  31  38  39 41  42  43  44  45  46  47  48 0
 3-21G
 ****


