%nproc=1
%NoSave
%Mem=1900MB
#P OB98/GEN NMR

erre ene a

0 1
  C       29.383     -32.858     -37.765
  O       30.117     -31.722     -37.354
  H       30.041     -33.731     -37.736
  H       29.022     -32.723     -38.788
  H       28.539     -33.029     -37.091
  P       29.317     -30.333     -37.285
  C       27.507     -29.353     -35.697
  O       28.213     -30.508     -36.134
  C       26.324     -29.770     -34.827
  O       25.229     -30.189     -35.673
  C       26.608     -30.953     -33.909
  O       27.323     -30.564     -32.749
  C       25.197     -31.445     -33.616
  O       24.587     -30.697     -32.556
  C       24.468     -31.172     -34.937
  N       21.048     -34.223     -37.166
  C       20.918     -33.056     -36.498
  N       21.886     -32.293     -35.948
  C       23.094     -32.844     -36.154
  C       23.381     -34.029     -36.809
  C       22.289     -34.737     -37.336
  N       22.418     -35.941     -37.985
  N       24.738     -34.285     -36.774
  C       25.261     -33.268     -36.118
  N       24.306     -32.373     -35.730
  O       28.460     -30.347     -38.639
  O       30.168     -29.113     -37.173
  H       25.261     -30.607     -31.855
  H       28.941     -29.861     -39.334
  H       19.901     -32.690     -36.386
  H       26.313     -33.144     -35.895
  H       23.467     -30.751     -34.778
  H       25.197     -32.493     -33.314
  H       27.149     -31.735     -34.454
  H       25.992     -28.899     -34.248
  H       27.136     -28.804     -36.569
  H       28.191     -28.710     -35.134
  H       21.587     -36.405     -38.317
  H       23.326     -36.384     -38.022
  P       28.075     -31.694     -31.900
  C       29.909     -33.459     -32.430
  O       28.877     -32.624     -32.931
  O       26.879     -32.629     -31.395
  O       28.897     -31.178     -30.767
  H       26.652     -32.422     -30.469
  H       30.344     -34.012     -33.236
  H       29.501     -34.138     -31.711
  H       30.661     -32.857     -31.965

 6  7  8  9  10  11  12  13  14  15  25  28  32  33  34  35 0
 6-311+G(2d,p)
 ****
 36  37  40 0
 6-311+G(2d,p)
 ****
 1  2  3  4  5  16  17  18  19  20  21  22  23  24 0
 3-21G
 ****
 26  27  29  30  31  38  39 41  42  43  44  45  46  47  48 0
 3-21G
 ****


