%nproc=1
%NoSave
%Mem=1900MB
#P OB98/GEN NMR

erre ene a

0 1
  C       56.582     -44.622     -24.371
  O       56.750     -45.968     -24.826
  P       57.475     -46.997     -23.834
  C       55.960     -48.973     -24.596
  O       57.282     -48.480     -24.409
  C       55.716     -49.275     -26.076
  O       55.671     -48.065     -26.855
  C       56.816     -50.113     -26.705
  O       56.674     -51.473     -26.346
  C       56.610     -49.844     -28.190
  O       55.701     -50.788     -28.781
  C       56.009     -48.419     -28.207
  N       56.903     -47.441     -28.802
  C       56.954     -47.429     -30.200
  O       56.284     -48.233     -30.852
  N       57.780     -46.527     -30.819
  C       58.509     -45.726     -30.106
  N       59.312     -44.857     -30.776
  C       58.504     -45.724     -28.629
  C       57.687     -46.600     -28.048
  O       56.538     -46.979     -22.537
  O       58.883     -46.626     -23.501
  H       56.218     -51.611     -28.901
  H       57.070     -47.116     -21.733
  H       59.135     -45.043     -28.078
  H       57.619     -46.670     -26.967
  H       55.071     -48.409     -28.776
  H       57.550     -49.923     -28.745
  H       57.798     -49.736     -26.393
  H       54.751     -49.792     -26.170
  H       59.292     -44.887     -31.788
  H       55.232     -48.242     -24.240
  H       59.925     -44.196     -30.321
  H       55.829     -49.872     -23.984
  P       57.695     -52.071     -25.268
  C       55.937     -53.941     -25.240
  O       57.312     -53.624     -25.147
  O       57.115     -51.482     -23.894
  O       59.141     -51.754     -25.445
  H       57.713     -51.699     -23.157
  H       55.834     -55.023     -25.353
  H       55.485     -53.453     -26.107
  H       55.422     -53.632     -24.326
  H       56.087     -44.049     -25.127
  H       57.540     -44.192     -24.167
  H       55.992     -44.618     -23.478

 3  4  5  6  7  8  9  10  11  12  13  21  23  27  28  29  30  32 0
 6-311+G(2d,p)
 ****
 34  35 0
 6-311+G(2d,p)
 ****
 1  2  14  15  16  17  18  19  20  22  24  25  26 0
 3-21G
 ****
 31  33  36  37  38  39  40  41  42  43  44  45  46 0
 3-21G
 ****


