%nproc=1
%NoSave
%Mem=1900MB
#P OB98/GEN NMR

erre ene a

0 1
  C     1133.363     188.931    -296.354
  O     1133.679     187.684    -296.944
  H     1133.601     189.726    -297.065
  H     1133.951     189.093    -295.443
  H     1132.295     188.984    -296.124
  P     1133.523     186.360    -296.043
  C     1136.092     186.285    -295.724
  O     1134.815     186.296    -295.099
  C     1137.171     186.795    -294.768
  O     1137.525     185.715    -293.851
  C     1138.470     187.243    -295.465
  O     1139.058     188.275    -294.662
  C     1139.300     185.971    -295.421
  O     1140.647     186.233    -295.711
  C     1138.954     185.491    -294.005
  N     1139.311     184.093    -293.794
  C     1140.254     183.843    -292.798
  O     1140.755     184.778    -292.151
  N     1140.645     182.545    -292.563
  C     1140.178     181.585    -293.318
  N     1140.620     180.343    -293.051
  C     1139.230     181.820    -294.428
  C     1138.843     183.087    -294.600
  O     1133.227     185.099    -296.796
  O     1132.340     186.725    -295.023
  H     1141.166     185.399    -295.761
  H     1131.528     186.267    -295.290
  H     1138.890     181.002    -295.043
  H     1138.142     183.358    -295.390
  H     1139.462     186.091    -293.244
  H     1138.952     185.259    -296.158
  H     1138.286     187.617    -296.482
  H     1136.750     187.598    -294.158
  H     1141.283     180.216    -292.296
  H     1136.032     186.942    -296.597
  H     1140.350     179.530    -293.586
  H     1136.341     185.281    -296.066
  P     1138.790     189.836    -294.926
  C     1140.624     190.154    -296.716
  O     1139.226     190.213    -296.431
  O     1139.375     190.724    -293.875
  O     1137.195     189.999    -294.957
  H     1136.956     190.873    -294.626
  H     1140.791     190.423    -297.738
  H     1140.981     189.160    -296.546
  H     1141.147     190.835    -296.078

 6  7  8  9  10  11  12  13  14  15  16  26  30  31  32  33  35 0
 6-311+G(2d,p)
 ****
 37  38 0
 6-311+G(2d,p)
 ****
 1  2  3  4  5  17  18  19  20  21  22  23  24  25 0
 3-21G
 ****
 27  28  29  34  36  39  40  41  42  43  44  45  46 0
 3-21G
 ****


