%nproc=1
%NoSave
%Mem=1900MB
#P OB98/GEN NMR

erre ene a

0 1
  C       97.942     761.484     254.972
  O       98.862     760.580     254.385
  P      100.416     761.005     254.374
  C      101.238     760.265     256.724
  O      100.815     761.343     255.894
  C      102.211     760.753     257.798
  O      103.337     761.412     257.142
  C      101.614     761.761     258.796
  O      102.246     761.509     260.063
  C      102.070     763.091     258.213
  O      101.985     764.177     259.124
  C      103.463     762.722     257.740
  N      106.268     766.967     257.199
  C      105.975     766.214     258.285
  N      105.220     765.097     258.352
  C      104.774     764.746     257.128
  C      104.993     765.412     255.934
  C      105.787     766.575     255.998
  N      106.080     767.338     254.885
  N      104.362     764.768     254.895
  C      103.763     763.732     255.444
  N      104.008     763.673     256.788
  O      100.395     762.446     253.679
  O      101.325     760.050     253.664
  H      101.059     764.303     259.420
  H      101.154     762.564     253.088
  H      106.376     766.570     259.224
  H      103.142     763.015     254.931
  H      104.172     762.644     258.580
  H      101.424     763.342     257.357
  H      100.533     761.667     258.911
  H      102.611     759.889     258.333
  H      101.751     759.507     256.118
  H      106.483     768.245     255.060
  H      105.555     767.159     254.050
  H      100.361     759.797     257.181
  P      101.531     762.052     261.391
  C      101.371     759.718     262.464
  O      100.652     760.804     261.912
  O      100.402     763.012     260.776
  O      102.424     762.711     262.385
  H       99.884     762.554     260.093
  H      100.653     758.990     262.852
  H      102.014     760.062     263.278
  H      101.972     759.238     261.687
  H       96.954     761.078     254.911
  H       97.977     762.417     254.450
  H       98.200     761.640     255.999

 3  4  5  6  7  8  9  10  11  12  22  25  29  30  31  32 0
 6-311+G(2d,p)
 ****
 33  36  37 0
 6-311+G(2d,p)
 ****
 1  2  13  14  15  16  17  18  19  20  21  23  24  26 0
 3-21G
 ****
 27  28  34  35  38  39  40  41  42  43  44  45  46  47  48 0
 3-21G
 ****


