%nproc=1
%NoSave
%Mem=1900MB
#P OB98/GEN NMR

erre ene a

0 1
  C     -507.470      -8.691    -274.754
  O     -507.858      -9.956    -275.246
  H     -508.308      -7.999    -274.859
  H     -506.621      -8.303    -275.329
  H     -507.201      -8.763    -273.698
  P     -506.744     -11.111    -275.240
  C     -507.501     -12.959    -273.579
  O     -506.765     -11.758    -273.774
  C     -506.585     -14.032    -272.994
  O     -505.596     -14.421    -273.976
  C     -505.791     -13.577    -271.778
  O     -506.573     -13.573    -270.598
  C     -504.687     -14.617    -271.752
  O     -505.108     -15.819    -271.088
  C     -504.433     -14.874    -273.255
  N     -503.212     -14.231    -273.730
  C     -502.023     -14.851    -273.358
  O     -501.980     -15.877    -272.677
  N     -500.873     -14.230    -273.769
  C     -500.802     -13.054    -274.461
  O     -499.738     -12.512    -274.734
  C     -502.093     -12.452    -274.836
  C     -503.221     -13.053    -274.447
  O     -505.371     -10.287    -275.274
  O     -506.843     -12.090    -276.361
  H     -504.994     -10.307    -276.171
  H     -505.754     -16.247    -271.684
  H     -500.001     -14.660    -273.504
  H     -502.070     -11.525    -275.389
  H     -504.185     -12.616    -274.693
  H     -504.343     -15.953    -273.446
  H     -503.808     -14.255    -271.222
  H     -505.348     -12.590    -271.963
  H     -507.198     -14.913    -272.750
  H     -507.891     -13.309    -274.540
  H     -508.341     -12.755    -272.907
  P     -506.011     -12.808    -269.308
  C     -508.176     -11.462    -268.665
  O     -506.861     -11.447    -269.180
  O     -504.578     -12.324    -269.834
  O     -505.984     -13.644    -268.076
  H     -504.584     -12.080    -270.773
  H     -508.569     -10.467    -268.661
  H     -508.163     -11.845    -267.666
  H     -508.792     -12.086    -269.278

 6  7  8  9  10  11  12  13  14  15  16  27  31  32  33  34  35 0
 6-311+G(2d,p)
 ****
 36  37 0
 6-311+G(2d,p)
 ****
 1  2  3  4  5  17  18  19  20  21  22  23  24  25 0
 3-21G
 ****
 26  28  29  30  38  39  40  41  42  43  44  45 0
 3-21G
 ****


