%nproc=1
%NoSave
%Mem=1900MB
#P OB98/GEN NMR

erre ene a

0 1
  C      227.559     -41.868    -259.744
  O      227.637     -40.754    -258.874
  P      228.739     -40.806    -257.706
  C      226.824     -40.895    -255.946
  O      228.014     -41.494    -256.453
  C      225.783     -41.967    -255.634
  O      225.791     -42.977    -256.658
  C      226.028     -42.705    -254.330
  O      225.628     -41.914    -253.226
  C      225.186     -43.958    -254.530
  O      223.823     -43.733    -254.131
  C      225.284     -44.191    -256.056
  N      226.109     -45.338    -256.394
  C      225.428     -46.441    -256.924
  O      224.204     -46.407    -257.056
  N      226.148     -47.566    -257.246
  C      227.430     -47.583    -257.055
  N      228.095     -48.723    -257.399
  C      228.179     -46.450    -256.482
  C      227.464     -45.369    -256.171
  O      228.876     -39.276    -257.266
  O      230.046     -41.403    -258.109
  H      223.809     -43.855    -253.158
  H      229.757     -39.100    -256.887
  H      229.252     -46.515    -256.343
  H      227.934     -44.492    -255.745
  H      224.285     -44.348    -256.481
  H      225.556     -44.797    -253.934
  H      227.085     -42.982    -254.234
  H      224.794     -41.493    -255.629
  H      227.550     -49.483    -257.782
  H      226.416     -40.214    -256.697
  H      229.094     -48.826    -257.310
  H      227.073     -40.319    -255.050
  P      226.763     -41.420    -252.212
  C      226.422     -43.584    -250.882
  O      227.347     -42.762    -251.565
  O      225.900     -40.812    -251.007
  O      227.764     -40.442    -252.735
  H      226.489     -40.383    -250.359
  H      226.906     -44.527    -250.628
  H      225.554     -43.792    -251.516
  H      226.097     -43.095    -249.957
  H      226.789     -41.702    -260.468
  H      227.332     -42.747    -259.178
  H      228.497     -41.997    -260.243

 3  4  5  6  7  8  9  10  11  12  13  21  23  27  28  29  30  32 0
 6-311+G(2d,p)
 ****
 34  35 0
 6-311+G(2d,p)
 ****
 1  2  14  15  16  17  18  19  20  22  24  25  26 0
 3-21G
 ****
 31  33  36  37  38  39  40  41  42  43  44  45  46 0
 3-21G
 ****


