%nproc=1
%NoSave
%Mem=1900MB
#P OB98/GEN NMR

erre ene a

0 1
  C     -231.087     -53.299    -229.839
  O     -231.000     -52.350    -230.882
  P     -231.312     -50.793    -230.682
  C     -230.799     -48.599    -231.982
  O     -230.462     -49.966    -231.769
  C     -229.779     -47.857    -232.855
  O     -228.520     -47.774    -232.152
  C     -229.507     -48.644    -234.140
  O     -230.375     -48.519    -235.249
  C     -228.033     -48.407    -234.448
  O     -227.834     -47.385    -235.428
  C     -227.453     -47.975    -233.097
  N     -222.873     -50.116    -233.524
  C     -223.357     -48.974    -234.131
  N     -222.590     -48.452    -235.111
  N     -224.501     -48.415    -233.815
  C     -225.202     -49.107    -232.881
  C     -224.817     -50.242    -232.200
  C     -223.536     -50.822    -232.529
  O     -223.105     -51.883    -232.074
  N     -225.815     -50.704    -231.380
  C     -226.817     -49.878    -231.596
  N     -226.505     -48.916    -232.527
  O     -231.353     -50.293    -229.273
  O     -232.811     -50.693    -231.276
  H     -228.258     -46.568    -235.102
  H     -233.285     -50.017    -230.755
  H     -222.021     -50.547    -233.864
  H     -227.794     -49.948    -231.126
  H     -226.932     -47.013    -233.191
  H     -227.571     -49.316    -234.853
  H     -221.781     -48.937    -235.478
  H     -229.569     -49.708    -233.874
  H     -222.989     -47.721    -235.690
  H     -230.088     -46.822    -233.030
  H     -230.886     -48.125    -230.998
  H     -231.787     -48.539    -232.454
  P     -230.697     -49.649    -236.336
  C     -232.770     -50.563    -237.534
  O     -232.284     -49.840    -236.413
  O     -230.211     -51.012    -235.651
  O     -230.022     -49.461    -237.660
  H     -230.037     -51.687    -236.338
  H     -233.839     -50.371    -237.650
  H     -232.615     -51.635    -237.369
  H     -232.256     -50.257    -238.449
  H     -230.833     -54.268    -230.216
  H     -232.086     -53.316    -229.455
  H     -230.408     -53.032    -229.056

 3  4  5  6  7  8  9  10  11  12  23  26  30  31 0
 6-311+G(2d,p)
 ****
 33  35  36  37  38 0
 6-311+G(2d,p)
 ****
 1  2  13  14  15  16  17  18  19  20  21  22  24  25 0
 3-21G
 ****
 27  28  29  32  34  39  40  41  42  43  44  45  46  47  48  49 0
 3-21G
 ****


