%nproc=1
%NoSave
%Mem=1900MB
#P OB98/GEN NMR

erre ene a

0 1
  C       -9.251    -234.332    -396.993
  O       -9.883    -234.203    -398.252
  H       -8.735    -233.397    -396.763
  H       -8.516    -235.141    -397.027
  H       -9.991    -234.530    -396.212
  P      -10.848    -235.407    -398.702
  C      -13.044    -234.019    -398.314
  O      -12.197    -234.708    -399.216
  C      -13.745    -232.852    -399.017
  O      -12.792    -231.772    -399.189
  C      -14.298    -233.211    -400.398
  O      -15.516    -232.492    -400.598
  C      -13.238    -232.680    -401.349
  O      -13.759    -232.431    -402.651
  C      -12.756    -231.432    -400.590
  N      -11.419    -231.009    -401.005
  C      -11.266    -229.661    -401.351
  O      -12.233    -228.896    -401.308
  N      -10.040    -229.221    -401.774
  C       -9.064    -230.062    -401.907
  N       -7.880    -229.568    -402.356
  C       -9.191    -231.502    -401.596
  C      -10.380    -231.899    -401.147
  O      -11.262    -236.038    -397.290
  O      -10.228    -236.374    -399.652
  H      -14.095    -233.277    -403.019
  H      -11.494    -235.373    -396.620
  H       -8.350    -232.166    -401.734
  H      -10.559    -232.935    -400.888
  H      -13.447    -230.594    -400.747
  H      -12.422    -233.404    -401.447
  H      -14.476    -234.282    -400.519
  H      -14.538    -232.478    -398.360
  H       -7.840    -228.580    -402.576
  H      -12.467    -233.634    -397.467
  H       -7.069    -230.141    -402.547
  H      -13.781    -234.731    -397.929
  P      -16.793    -233.252    -401.188
  C      -18.096    -233.182    -398.953
  O      -18.091    -232.852    -400.338
  O      -16.622    -234.712    -401.438
  O      -17.047    -232.481    -402.579
  H      -17.286    -233.150    -403.249
  H      -19.016    -232.859    -398.513
  H      -17.278    -232.693    -398.467
  H      -17.998    -234.241    -398.838

 6  7  8  9  10  11  12  13  14  15  16  26  30  31  32  33  35 0
 6-311+G(2d,p)
 ****
 37  38 0
 6-311+G(2d,p)
 ****
 1  2  3  4  5  17  18  19  20  21  22  23  24  25 0
 3-21G
 ****
 27  28  29  34  36  39  40  41  42  43  44  45  46 0
 3-21G
 ****


