%nproc=1
%NoSave
%Mem=1900MB
#P OB98/GEN NMR

erre ene a

0 1
  C     -130.089     396.040     468.777
  O     -130.041     395.833     467.377
  H     -131.123     395.903     469.111
  H     -129.771     397.054     469.030
  H     -129.458     395.310     469.286
  P     -128.671     396.132     466.601
  C     -128.930     398.675     466.269
  O     -128.253     397.636     466.973
  C     -128.347     400.043     466.629
  O     -128.985     401.049     465.799
  C     -128.558     400.434     468.097
  O     -127.397     401.137     468.550
  C     -129.750     401.365     468.028
  O     -129.793     402.242     469.139
  C     -129.549     402.049     466.667
  N     -130.813     402.573     466.146
  C     -131.208     403.828     466.626
  O     -130.495     404.440     467.426
  N     -132.422     404.339     466.240
  C     -133.203     403.628     465.483
  N     -134.411     404.173     465.171
  C     -132.843     402.285     464.983
  C     -131.644     401.821     465.351
  O     -128.661     395.824     465.140
  O     -127.591     395.251     467.392
  H     -129.988     401.726     469.952
  H     -127.518     394.368     466.988
  H     -133.536     401.729     464.362
  H     -131.300     400.846     465.034
  H     -128.829     402.873     466.748
  H     -130.676     400.780     468.022
  H     -128.748     399.573     468.751
  H     -127.283     400.043     466.371
  H     -134.622     405.082     465.558
  H     -129.990     398.640     466.556
  H     -135.120     403.693     464.625
  H     -128.851     398.503     465.193
  P     -126.544     400.592     469.794
  C     -127.012     402.443     471.496
  O     -127.238     401.075     471.159
  O     -125.074     400.860     469.716
  O     -126.824     399.006     469.785
  H     -126.049     398.541     470.148
  H     -127.510     402.671     472.415
  H     -127.395     403.070     470.718
  H     -125.962     402.614     471.608

 6  7  8  9  10  11  12  13  14  15  16  26  30  31  32  33  35 0
 6-311+G(2d,p)
 ****
 37  38 0
 6-311+G(2d,p)
 ****
 1  2  3  4  5  17  18  19  20  21  22  23  24  25 0
 3-21G
 ****
 27  28  29  34  36  39  40  41  42  43  44  45  46 0
 3-21G
 ****


