%nproc=1
%NoSave
%Mem=1900MB
#P OB98/GEN NMR

erre ene a

0 1
  C      460.603    -457.877     259.736
  O      461.944    -458.134     260.097
  H      460.023    -457.709     260.646
  H      460.188    -458.747     259.214
  H      460.525    -456.993     259.099
  P      463.069    -458.133     258.954
  C      464.243    -460.329     259.622
  O      464.333    -458.912     259.562
  C      464.852    -460.859     260.927
  O      464.139    -460.266     262.053
  C      464.768    -462.389     261.078
  O      465.906    -462.803     261.851
  C      463.495    -462.543     261.890
  O      463.420    -463.822     262.492
  C      463.615    -461.352     262.843
  N      462.335    -461.008     263.472
  C      461.937    -461.801     264.539
  O      462.585    -462.773     264.947
  N      460.742    -461.475     265.117
  C      459.891    -460.494     264.694
  O      458.811    -460.265     265.229
  C      460.345    -459.716     263.529
  C      461.532    -459.999     262.980
  O      463.384    -456.802     258.358
  O      462.519    -459.162     257.857
  H      462.670    -463.853     263.126
  H      462.828    -458.903     256.967
  H      460.442    -462.035     265.901
  H      459.690    -458.939     263.156
  H      461.892    -459.444     262.125
  H      464.337    -461.564     263.646
  H      462.610    -462.433     261.251
  H      464.735    -462.918     260.127
  H      465.891    -460.515     260.998
  H      464.790    -460.742     258.767
  H      463.194    -460.637     259.557
  P      466.900    -463.958     261.344
  C      467.375    -465.432     263.415
  O      467.859    -464.389     262.564
  O      467.630    -463.632     260.081
  O      465.964    -465.240     261.139
  H      466.342    -465.819     260.446
  H      468.094    -465.629     264.183
  H      467.218    -466.319     262.838
  H      466.451    -465.128     263.861

 6  7  8  9  10  11  12  13  14  15  16  26  31  32  33  34  35 0
 6-311+G(2d,p)
 ****
 36  37 0
 6-311+G(2d,p)
 ****
 1  2  3  4  5  17  18  19  20  21  22  23  24  25 0
 3-21G
 ****
 27  28  29  30  38  39  40  41  42  43  44  45 0
 3-21G
 ****


