%nproc=1
%NoSave
%Mem=1900MB
#P OB98/GEN NMR

erre ene a

0 1
  C     -176.776    -412.944    -241.901
  O     -177.576    -412.878    -240.729
  P     -177.037    -413.446    -239.328
  C     -179.196    -414.712    -238.731
  O     -178.348    -413.612    -238.414
  C     -180.432    -414.691    -237.828
  O     -179.991    -414.804    -236.453
  C     -181.278    -413.418    -237.884
  O     -182.223    -413.380    -238.943
  C     -182.018    -413.518    -236.550
  O     -183.111    -414.447    -236.671
  C     -180.938    -414.072    -235.625
  N     -179.346    -412.553    -231.003
  C     -179.999    -413.666    -231.412
  N     -180.402    -413.981    -232.659
  C     -180.026    -413.040    -233.541
  C     -179.352    -411.860    -233.272
  C     -179.003    -411.624    -231.930
  N     -178.316    -410.507    -231.514
  N     -179.162    -411.131    -234.434
  C     -179.708    -411.871    -235.383
  N     -180.232    -413.031    -234.895
  O     -175.920    -412.661    -238.729
  O     -176.630    -414.958    -239.645
  H     -183.773    -414.046    -237.264
  H     -176.045    -415.300    -238.936
  H     -180.230    -414.385    -230.642
  H     -179.739    -411.600    -236.426
  H     -181.344    -414.784    -234.892
  H     -182.451    -412.565    -236.236
  H     -180.649    -412.514    -237.883
  H     -181.040    -415.572    -238.066
  H     -178.636    -415.636    -238.558
  H     -177.994    -410.483    -230.561
  H     -177.925    -409.904    -232.225
  H     -179.478    -414.671    -239.784
  P     -181.730    -412.762    -240.344
  C     -184.140    -411.733    -240.471
  O     -183.072    -412.370    -241.144
  O     -180.762    -413.606    -241.085
  O     -181.138    -411.340    -239.913
  H     -181.785    -410.694    -239.584
  H     -184.877    -411.416    -241.215
  H     -183.791    -410.853    -239.924
  H     -184.615    -412.428    -239.779
  H     -177.311    -412.516    -242.723
  H     -176.546    -413.966    -242.119
  H     -175.868    -412.400    -241.744

 3  4  5  6  7  8  9  10  11  12  22  25  29  30  31  32 0
 6-311+G(2d,p)
 ****
 33  36  37 0
 6-311+G(2d,p)
 ****
 1  2  13  14  15  16  17  18  19  20  21  23  24  26 0
 3-21G
 ****
 27  28  34  35  38  39  40  41  42  43  44  45  46  47  48 0
 3-21G
 ****


