%nproc=1
%NoSave
%Mem=1900MB
#P OB98/GEN NMR

erre ene a

0 1
  C       68.467       1.519     237.073
  O       69.480       0.850     237.810
  P       69.265      -0.708     238.136
  C       68.053      -0.126     240.348
  O       67.980      -0.798     239.095
  C       67.254      -0.874     241.413
  O       65.833      -0.717     241.131
  C       67.548      -2.385     241.480
  O       67.654      -2.786     242.857
  C       66.291      -3.021     240.912
  O       66.092      -4.346     241.393
  C       65.237      -2.011     241.373
  N       60.239      -1.658     242.030
  C       61.265      -1.233     242.843
  N       60.908      -0.684     244.029
  N       62.534      -1.333     242.535
  C       62.739      -1.871     241.304
  C       61.805      -2.325     240.400
  C       60.409      -2.264     240.786
  O       59.460      -2.703     240.146
  N       62.403      -2.789     239.254
  C       63.695      -2.623     239.466
  N       63.953      -2.112     240.713
  O       70.492      -1.039     239.108
  O       69.254      -1.615     236.951
  H       66.111      -4.299     242.369
  H       71.010      -1.784     238.742
  H       59.280      -1.577     242.321
  H       64.477      -2.884     238.759
  H       65.066      -2.110     242.455
  H       66.365      -3.050     239.818
  H       59.952      -0.542     244.314
  H       68.447      -2.692     240.935
  H       61.650      -0.342     244.627
  H       67.438      -0.400     242.385
  H       67.647       0.883     240.236
  H       69.105      -0.054     240.648
  P       68.558      -4.082     243.144
  C       66.501      -5.640     243.515
  O       67.652      -5.344     242.745
  O       68.620      -4.139     244.745
  O       69.917      -4.023     242.521
  H       69.419      -4.621     245.039
  H       66.264      -4.845     244.228
  H       66.669      -6.568     244.062
  H       65.650      -5.772     242.841
  H       68.745       2.543     236.933
  H       67.544       1.471     237.611
  H       68.349       1.048     236.120

 3  4  5  6  7  8  9  10  11  12  23  26  30  31  33  0
 6-311+G(2d,p)
 ****
 35  36  37  38 0
 6-311+G(2d,p)
 ****
 1  2  13  14  15  16  17  18  19  20  21  22  24  25  27  28  29 0
 3-21G
 ****
 32  34  39  40  41  42  43  44  45  46  47  48  49 0
 3-21G
 ****


