%nproc=1
%NoSave
%Mem=1900MB
#P OB98/GEN NMR

erre ene a

0 1
  C       95.358     417.293     163.642
  O       96.450     416.854     164.460
  P       96.116     415.931     165.726
  C       98.135     416.875     167.067
  O       97.468     415.729     166.565
  C       99.626     416.584     167.255
  O       99.858     415.681     168.358
  C      100.280     415.939     166.043
  O      100.651     416.900     165.066
  C      101.527     415.332     166.669
  O      102.531     416.352     166.841
  C      101.006     414.858     168.032
  N      102.422     410.191     169.372
  C      103.068     411.399     169.539
  N      104.267     411.360     170.159
  N      102.585     412.545     169.132
  C      101.371     412.436     168.542
  C      100.632     411.297     168.315
  C      101.187     410.033     168.758
  O      100.665     408.931     168.624
  N       99.454     411.583     167.684
  C       99.466     412.894     167.543
  N      100.618     413.459     168.034
  O       95.892     414.490     165.065
  O       94.924     416.370     166.510
  H      103.326     415.904     167.190
  H       95.282     413.962     165.617
  H      102.841     409.339     169.698
  H       98.670     413.480     167.099
  H      101.746     414.990     168.830
  H      101.971     414.552     166.045
  H      104.674     410.523     170.545
  H       99.646     415.144     165.625
  H      104.740     412.240     170.324
  H      100.134     417.534     167.473
  H       97.694     417.188     168.019
  H       97.972     417.712     166.378
  P       99.655     417.138     163.834
  C      101.479     417.666     162.063
  O      100.407     418.148     162.844
  O       98.489     418.022     164.482
  O       99.123     415.892     163.211
  H       97.641     417.831     164.041
  H      101.760     418.439     161.342
  H      101.185     416.769     161.515
  H      102.341     417.451     162.697
  H       95.732     417.896     162.841
  H       94.678     417.868     164.234
  H       94.849     416.442     163.240

 3  4  5  6  7  8  9  10  11  12  23  26  30  31 0
 6-311+G(2d,p)
 ****
 33  35  36  37  38 0
 6-311+G(2d,p)
 ****
 1  2  13  14  15  16  17  18  19  20  21  22  24  25 0
 3-21G
 ****
 27  28  29  32  34  39  40  41  42  43  44  45  46  47  48  49 0
 3-21G
 ****


