%nproc=1
%NoSave
%Mem=1900MB
#P OB98/GEN NMR

erre ene a

0 1
  C       -0.009     297.262     264.129
  O       -0.961     296.758     265.068
  P       -1.146     295.163     265.098
  C       -3.256     295.034     263.606
  O       -1.878     294.725     263.736
  C       -3.896     294.262     262.445
  O       -5.315     294.581     262.322
  C       -3.250     294.544     261.084
  O       -3.307     293.323     260.334
  C       -4.208     295.550     260.463
  O       -4.042     295.630     259.055
  C       -5.538     294.977     260.947
  N       -9.768     296.089     258.429
  C       -8.825     295.111     258.194
  N       -9.069     294.273     257.163
  N       -7.736     294.964     258.903
  C       -7.646     295.853     259.929
  C       -8.524     296.853     260.276
  C       -9.706     297.024     259.458
  O      -10.577     297.868     259.627
  N       -8.096     297.525     261.398
  C       -6.932     296.965     261.679
  N       -6.642     295.915     260.856
  O       -2.259     294.946     266.224
  O        0.115     294.419     265.410
  H       -3.124     295.934     258.883
  H       -1.842     294.671     267.064
  H      -10.581     296.166     257.839
  H       -6.279     297.264     262.480
  H       -5.839     294.090     260.377
  H       -4.032     296.546     260.887
  H       -9.907     294.294     256.603
  H       -2.224     294.915     261.136
  H       -8.411     293.523     256.991
  H       -3.827     293.190     262.673
  H       -3.384     296.106     263.426
  H       -3.765     294.820     264.553
  P       -1.974     292.448     260.236
  C       -1.419     292.882     257.743
  O       -1.060     293.097     259.092
  O       -2.486     291.083     259.566
  O       -1.297     292.184     261.540
  H       -2.021     290.326     259.972
  H       -1.040     293.715     257.139
  H       -2.505     292.826     257.616
  H       -0.972     291.953     257.385
  H        0.029     298.329     264.198
  H       -0.300     296.979     263.139
  H        0.957     296.856     264.347

 3  4  5  6  7  8  9  10  11  12  23  26  30  31 0
 6-311+G(2d,p)
 ****
 33  35  36  37  38 0
 6-311+G(2d,p)
 ****
 1  2  13  14  15  16  17  18  19  20  21  22  24  25 0
 3-21G
 ****
 27  28  29  32  34  39  40  41  42  43  44  45  46  47  48  49 0
 3-21G
 ****


