%nproc=1
%NoSave
%Mem=1900MB
#P OB98/GEN NMR

erre ene a

0 1
  C     -236.992    -180.237    -448.709
  O     -237.893    -179.146    -448.708
  H     -236.311    -180.130    -447.861
  H     -236.408    -180.242    -449.633
  H     -237.539    -181.178    -448.607
  P     -238.997    -179.125    -449.871
  C     -240.823    -180.593    -448.740
  O     -239.816    -180.498    -449.741
  C     -242.163    -180.923    -449.387
  O     -242.785    -179.711    -449.874
  C     -242.051    -181.835    -450.601
  O     -241.874    -183.194    -450.243
  C     -243.377    -181.560    -451.296
  O     -244.438    -182.342    -450.732
  C     -243.603    -180.071    -451.011
  N     -245.420    -177.984    -455.301
  C     -246.017    -178.696    -454.320
  N     -245.465    -179.208    -453.200
  C     -244.158    -178.893    -453.130
  C     -243.415    -178.175    -454.049
  C     -244.100    -177.704    -455.184
  N     -243.487    -177.001    -456.195
  N     -242.095    -178.093    -453.652
  C     -242.044    -178.744    -452.506
  N     -243.268    -179.240    -452.150
  O     -238.127    -179.324    -451.199
  O     -239.830    -177.889    -449.931
  H     -244.478    -182.103    -449.784
  H     -237.990    -178.460    -451.632
  H     -247.077    -178.888    -454.458
  H     -241.153    -178.887    -451.909
  H     -244.644    -179.853    -450.744
  H     -243.316    -181.800    -452.359
  H     -241.237    -181.499    -451.252
  H     -242.820    -181.363    -448.627
  H     -240.901    -179.635    -448.213
  H     -240.537    -181.371    -448.024
  H     -244.026    -176.755    -457.008
  H     -242.481    -176.885    -456.171
  P     -241.405    -184.212    -451.388
  C     -239.037    -184.240    -450.295
  O     -239.807    -184.119    -451.482
  O     -241.907    -183.523    -452.743
  O     -241.933    -185.600    -451.243
  H     -242.188    -184.210    -453.380
  H     -237.997    -184.156    -450.534
  H     -239.223    -185.193    -449.845
  H     -239.310    -183.463    -449.612

 6  7  8  9  10  11  12  13  14  15  25  28  32  33  34  35 0
 6-311+G(2d,p)
 ****
 36  37  40 0
 6-311+G(2d,p)
 ****
 1  2  3  4  5  16  17  18  19  20  21  22  23  24 0
 3-21G
 ****
 26  27  29  30  31  38  39 41  42  43  44  45  46  47  48 0
 3-21G
 ****


