%nproc=1
%NoSave
%Mem=1900MB
#P OB98/GEN NMR

erre ene a

0 1
  C     -772.829     292.007    -427.061
  O     -774.137     292.166    -427.610
  P     -774.791     293.634    -427.485
  C     -777.096     292.535    -428.051
  O     -776.353     293.394    -427.201
  C     -778.294     291.946    -427.280
  O     -777.874     290.845    -426.463
  C     -778.971     292.952    -426.355
  O     -779.869     293.771    -427.074
  C     -779.658     292.004    -425.362
  O     -780.901     291.497    -425.910
  C     -778.631     290.871    -425.227
  N     -778.079     290.235    -420.233
  C     -779.213     290.114    -421.020
  N     -780.337     289.718    -420.403
  N     -779.233     290.357    -422.325
  C     -778.022     290.748    -422.786
  C     -776.837     290.913    -422.101
  C     -776.825     290.603    -420.698
  O     -775.830     290.600    -419.968
  N     -775.841     291.372    -422.929
  C     -776.401     291.421    -424.133
  N     -777.722     291.036    -424.105
  O     -774.737     294.173    -428.980
  O     -774.117     294.546    -426.495
  H     -781.484     292.244    -426.131
  H     -773.965     294.775    -429.094
  H     -778.133     290.016    -419.256
  H     -775.893     291.705    -425.031
  H     -779.114     289.891    -425.109
  H     -779.922     292.507    -424.439
  H     -780.422     289.543    -419.418
  H     -778.213     293.547    -425.819
  H     -781.181     289.629    -420.968
  H     -779.018     291.558    -428.035
  H     -776.444     291.712    -428.368
  H     -777.433     293.094    -428.939
  P     -780.373     295.114    -426.344
  C     -781.224     296.243    -428.530
  O     -781.537     295.719    -427.259
  O     -779.142     296.136    -426.561
  O     -780.687     294.959    -424.899
  H     -779.052     296.704    -425.770
  H     -782.088     296.135    -429.181
  H     -780.364     295.737    -428.966
  H     -780.997     297.318    -428.426
  H     -772.503     290.998    -427.203
  H     -772.852     292.231    -426.015
  H     -772.152     292.673    -427.554

 3  4  5  6  7  8  9  10  11  12  23  26  30  31 0
 6-311+G(2d,p)
 ****
 33  35  36  37  38 0
 6-311+G(2d,p)
 ****
 1  2  13  14  15  16  17  18  19  20  21  22  24  25 0
 3-21G
 ****
 27  28  29  32  34  39  40  41  42  43  44  45  46  47  48  49 0
 3-21G
 ****


