%nproc=1
%NoSave
%Mem=1900MB
#P OB98/GEN NMR

erre ene a

0 1
  C      431.773    -176.357     -96.935
  O      430.910    -177.144     -96.113
  P      429.333    -176.846     -96.159
  C      428.639    -175.905     -93.851
  O      429.018    -175.600     -95.193
  C      428.500    -174.620     -93.023
  O      429.675    -173.796     -93.226
  C      427.299    -173.738     -93.399
  O      426.053    -173.978     -92.747
  C      427.779    -172.367     -92.926
  O      427.528    -172.223     -91.511
  C      429.286    -172.400     -93.177
  N      429.265    -167.951     -95.699
  C      428.805    -168.304     -94.479
  N      428.847    -169.506     -93.879
  C      429.455    -170.406     -94.671
  C      429.969    -170.202     -95.943
  C      429.857    -168.895     -96.462
  N      430.318    -168.548     -97.709
  N      430.507    -171.365     -96.443
  C      430.299    -172.265     -95.503
  N      429.677    -171.735     -94.404
  O      428.443    -178.030     -95.993
  O      429.153    -176.194     -97.613
  H      428.028    -171.439     -91.223
  H      428.302    -176.501     -97.993
  H      428.334    -167.504     -93.906
  H      430.580    -173.311     -95.576
  H      429.855    -171.938     -92.369
  H      427.251    -171.550     -93.421
  H      427.152    -173.725     -94.484
  H      428.448    -174.882     -91.958
  H      429.397    -176.554     -93.401
  H      430.153    -167.601     -98.025
  H      430.710    -169.251     -98.315
  H      427.715    -176.484     -93.898
  P      424.818    -174.636     -93.527
  C      423.390    -172.437     -93.659
  O      424.138    -173.431     -94.344
  O      423.877    -175.423     -92.678
  O      425.545    -175.476     -94.678
  H      425.985    -174.938     -95.356
  H      423.199    -171.612     -94.346
  H      423.946    -172.060     -92.791
  H      422.432    -172.859     -93.333
  H      432.786    -176.673     -96.794
  H      431.680    -175.326     -96.665
  H      431.500    -176.482     -97.962

 3  4  5  6  7  8  9  10  11  12  22  25  29  30  31  32 0
 6-311+G(2d,p)
 ****
 33  36  37 0
 6-311+G(2d,p)
 ****
 1  2  13  14  15  16  17  18  19  20  21  23  24  26 0
 3-21G
 ****
 27  28  34  35  38  39  40  41  42  43  44  45  46  47  48 0
 3-21G
 ****


