%nproc=1
%NoSave
%Mem=1900MB
#P OB98/GEN NMR

erre ene a

0 1
  C      461.464      60.193    -272.672
  O      460.070      59.895    -272.629
  P      459.236      59.917    -273.995
  C      459.658      57.333    -274.380
  O      459.620      58.651    -274.888
  C      459.156      56.361    -275.459
  O      457.764      56.623    -275.766
  C      459.926      56.466    -276.772
  O      461.084      55.655    -276.773
  C      458.884      56.030    -277.784
  O      458.749      54.597    -277.782
  C      457.610      56.695    -277.211
  N      457.324      58.096    -277.589
  C      456.700      58.375    -278.800
  O      456.356      57.519    -279.616
  N      456.459      59.698    -279.065
  C      456.613      60.735    -278.194
  O      456.323      61.896    -278.459
  C      457.136      60.372    -276.872
  C      457.470      59.101    -276.636
  O      459.861      61.154    -274.798
  O      457.758      60.057    -273.816
  H      458.782      54.305    -276.856
  H      459.193      61.853    -274.924
  H      456.070      59.926    -279.966
  H      457.230      61.156    -276.129
  H      457.862      58.821    -275.662
  H      456.719      56.110    -277.474
  H      459.178      56.305    -278.797
  H      460.179      57.511    -276.981
  H      459.225      55.339    -275.069
  H      459.040      57.244    -273.483
  H      460.679      57.080    -274.090
  P      462.536      56.328    -276.898
  C      463.281      55.963    -274.472
  O      462.869      56.909    -275.439
  O      462.716      57.290    -278.028
  O      463.526      55.077    -277.007
  H      463.737      54.881    -277.946
  H      463.629      56.496    -273.580
  H      464.102      55.353    -274.860
  H      462.443      55.323    -274.192
  H      461.872      60.136    -271.684
  H      461.606      61.180    -273.060
  H      461.960      59.486    -273.304

 3  4  5  6  7  8  9  10  11  12  13  23  28  29  30  31  32 0
 6-311+G(2d,p)
 ****
 33  34 0
 6-311+G(2d,p)
 ****
 1  2  14  15  16  17  18  19  20  21  22  24  25  26  27 0
 3-21G
 ****
 35  36  37  38  39  40  41  42  43  44  45 0
 3-21G
 ****


