%nproc=1
%NoSave
%Mem=1900MB
#P OB98/GEN NMR

erre ene a

0 1
  C     -601.131     -44.557     375.045
  O     -599.854     -44.715     375.640
  H     -601.179     -45.183     374.150
  H     -601.288     -43.516     374.752
  H     -601.919     -44.869     375.736
  P     -599.538     -43.888     376.979
  C     -597.377     -45.247     377.405
  O     -597.944     -43.962     377.173
  C     -595.864     -45.199     377.225
  O     -595.531     -44.823     375.877
  C     -595.165     -44.191     378.146
  O     -594.992     -44.749     379.436
  C     -593.860     -43.999     377.387
  O     -592.992     -45.127     377.615
  C     -594.347     -43.976     375.927
  N     -592.550     -39.477     374.432
  C     -591.883     -40.574     374.947
  N     -590.552     -40.434     375.133
  N     -592.473     -41.694     375.280
  C     -593.814     -41.666     375.102
  C     -594.586     -40.629     374.617
  C     -593.914     -39.407     374.212
  O     -594.469     -38.422     373.733
  N     -595.927     -40.946     374.647
  C     -595.952     -42.176     375.119
  N     -594.703     -42.657     375.426
  O     -600.310     -44.282     378.199
  O     -599.787     -42.360     376.564
  H     -593.522     -45.929     377.445
  H     -600.705     -42.088     376.767
  H     -592.037     -38.633     374.216
  H     -596.851     -42.772     375.254
  H     -593.608     -44.398     375.245
  H     -593.317     -43.104     377.697
  H     -590.113     -39.522     375.167
  H     -595.699     -43.235     378.176
  H     -590.053     -41.205     375.553
  H     -595.474     -46.211     377.388
  H     -597.829     -45.939     376.685
  H     -597.615     -45.587     378.423
  P     -595.089     -43.829     380.750
  C     -594.840     -45.963     382.189
  O     -594.343     -44.666     381.906
  O     -596.476     -43.373     381.095
  O     -594.068     -42.625     380.485
  H     -594.480     -41.867     380.005
  H     -594.258     -46.405     382.971
  H     -594.775     -46.569     381.310
  H     -595.861     -45.894     382.500

 6  7  8  9  10  11  12  13  14  15  26  29  33  34 0
 6-311+G(2d,p)
 ****
 36  38  39  40  41 0
 6-311+G(2d,p)
 ****
 1  2  3  4  5  16  17  18  19  20  21  22  23  24  25 0
 3-21G
 ****
 27  28  30  31  32  35  37  42  43  44  45  46  47 0
 3-21G
 ****
 48  49 0
 3-21G
 ****


