%nproc=1
%NoSave
%Mem=1900MB
#P OB98/GEN NMR

erre ene a

0 1
  C       22.746    -303.938      79.584
  O       23.883    -303.246      79.102
  H       22.995    -304.386      80.550
  H       22.469    -304.738      78.891
  H       21.905    -303.253      79.723
  P       23.759    -302.410      77.739
  C       23.314    -302.952      75.263
  O       23.591    -303.481      76.554
  C       22.914    -304.069      74.299
  O       24.089    -304.874      74.004
  C       21.829    -305.002      74.851
  O       20.958    -305.369      73.782
  C       22.613    -306.219      75.310
  O       21.823    -307.407      75.300
  C       23.768    -306.246      74.310
  N       26.379    -310.575      74.203
  C       25.285    -310.176      73.461
  N       24.790    -311.068      72.572
  N       24.718    -309.002      73.578
  C       25.322    -308.204      74.496
  C       26.407    -308.485      75.290
  C       27.016    -309.793      75.161
  O       27.979    -310.205      75.796
  N       26.708    -307.422      76.113
  C       25.803    -306.507      75.815
  N       24.931    -306.937      74.846
  O       24.836    -301.396      77.508
  O       22.313    -301.731      77.829
  H       21.693    -307.661      74.361
  H       22.386    -300.800      78.107
  H       26.770    -311.495      74.076
  H       25.727    -305.527      76.271
  H       23.499    -306.757      73.377
  H       22.980    -306.059      76.332
  H       25.185    -311.983      72.415
  H       21.252    -304.551      75.667
  H       24.001    -310.789      71.999
  H       22.596    -303.613      73.353
  H       24.219    -302.452      74.896
  H       22.507    -302.213      75.339
  P       19.496    -304.708      73.716
  C       17.284    -304.879      75.027
  O       18.553    -305.468      74.771
  O       18.923    -304.546      72.347
  O       19.719    -303.283      74.422
  H       19.092    -302.638      74.037
  H       16.753    -305.473      75.741
  H       16.724    -304.829      74.117
  H       17.421    -303.892      75.416

 6  7  8  9  10  11  12  13  14  15  26  29  33  34 0
 6-311+G(2d,p)
 ****
 36  38  39  40  41 0
 6-311+G(2d,p)
 ****
 1  2  3  4  5  16  17  18  19  20  21  22  23  24  25 0
 3-21G
 ****
 27  28  30  31  32  35  37  42  43  44  45  46  47 0
 3-21G
 ****
 48  49 0
 3-21G
 ****


