%nproc=1
%NoSave
%Mem=1900MB
#P OB98/GEN NMR

erre ene a

0 1
  C      -41.356    -251.012    -178.811
  O      -40.612    -251.999    -178.125
  H      -42.276    -250.815    -178.254
  H      -41.620    -251.366    -179.812
  H      -40.781    -250.084    -178.882
  P      -39.227    -252.448    -178.802
  C      -37.302    -252.546    -177.066
  O      -38.064    -251.738    -177.952
  C      -36.868    -251.736    -175.849
  O      -38.017    -251.189    -175.162
  C      -36.079    -252.529    -174.814
  O      -34.711    -252.621    -175.173
  C      -36.304    -251.691    -173.563
  O      -35.418    -250.553    -173.523
  C      -37.762    -251.244    -173.733
  N      -40.070    -252.306    -169.370
  C      -39.180    -251.300    -169.686
  N      -38.812    -250.486    -168.671
  N      -38.689    -251.112    -170.881
  C      -39.123    -252.021    -171.786
  C      -40.015    -253.054    -171.599
  C      -40.575    -253.229    -170.277
  O      -41.414    -254.061    -169.948
  N      -40.218    -253.750    -172.763
  C      -39.424    -253.164    -173.639
  N      -38.726    -252.121    -173.090
  O      -39.210    -251.643    -180.187
  O      -39.066    -253.914    -179.017
  H      -35.449    -250.094    -174.379
  H      -38.725    -252.165    -180.853
  H      -40.427    -252.388    -168.434
  H      -39.321    -253.457    -174.676
  H      -37.933    -250.238    -173.333
  H      -36.114    -252.265    -172.654
  H      -38.885    -250.776    -167.707
  H      -36.519    -253.524    -174.669
  H      -38.142    -249.759    -168.891
  H      -36.276    -250.886    -176.214
  H      -36.413    -252.909    -177.592
  H      -37.907    -253.403    -176.752
  P      -34.206    -253.993    -175.840
  C      -32.717    -253.770    -177.961
  O      -34.021    -253.692    -177.405
  O      -35.505    -254.927    -175.795
  O      -33.037    -254.622    -175.161
  H      -35.250    -255.860    -175.921
  H      -32.761    -253.544    -179.006
  H      -32.330    -254.758    -177.826
  H      -32.077    -253.066    -177.470

 6  7  8  9  10  11  12  13  14  15  26  29  33  34 0
 6-311+G(2d,p)
 ****
 36  38  39  40  41 0
 6-311+G(2d,p)
 ****
 1  2  3  4  5  16  17  18  19  20  21  22  23  24  25 0
 3-21G
 ****
 27  28  30  31  32  35  37  42  43  44  45  46  47 0
 3-21G
 ****
 48  49 0
 3-21G
 ****


