%nproc=1
%NoSave
%Mem=1900MB
#P OB98/GEN NMR

erre ene a

0 1
  C       -5.851     748.542    -685.410
  O       -4.794     747.703    -685.855
  P       -3.357     748.324    -686.194
  C       -1.966     747.930    -684.071
  O       -2.262     747.461    -685.374
  C       -0.583     747.479    -683.617
  O       -0.588     746.050    -683.359
  C        0.552     747.734    -684.650
  O        1.734     748.047    -683.900
  C        0.700     746.396    -685.333
  O        1.961     746.233    -685.978
  C        0.479     745.459    -684.132
  N        2.083     741.240    -686.582
  C        2.669     742.447    -686.371
  N        2.158     743.531    -685.726
  C        0.917     743.283    -685.266
  C        0.191     742.113    -685.417
  C        0.817     741.049    -686.076
  N        0.252     739.798    -686.268
  N       -1.074     742.260    -684.845
  C       -1.081     743.494    -684.382
  N        0.108     744.122    -684.551
  O       -3.235     749.797    -686.015
  O       -3.096     747.895    -687.706
  H        2.049     746.920    -686.658
  H       -3.204     748.678    -688.300
  H        3.663     742.550    -686.783
  H       -1.941     743.976    -683.906
  H        1.374     745.383    -683.493
  H       -0.070     746.271    -686.088
  H        0.323     748.553    -685.354
  H       -0.340     747.977    -682.658
  H       -2.711     747.509    -683.379
  H        0.838     739.067    -686.639
  H       -0.561     739.551    -685.696
  H       -2.052     749.022    -684.030
  P        2.721     749.213    -684.395
  C        3.562     750.297    -682.247
  O        3.848     749.364    -683.257
  O        2.059     750.477    -684.835
  O        3.527     748.505    -685.613
  H        3.953     749.201    -686.156
  H        3.783     751.314    -682.603
  H        4.200     750.074    -681.369
  H        2.524     750.256    -681.943
  H       -6.726     747.951    -685.236
  H       -6.061     749.278    -686.158
  H       -5.562     749.028    -684.502

 3  4  5  6  7  8  9  10  11  12  22  25  29  30  31  32 0
 6-311+G(2d,p)
 ****
 33  36  37 0
 6-311+G(2d,p)
 ****
 1  2  13  14  15  16  17  18  19  20  21  23  24  26 0
 3-21G
 ****
 27  28  34  35  38  39  40  41  42  43  44  45  46  47  48 0
 3-21G
 ****


