%nproc=1
%NoSave
%Mem=1900MB
#P OB98/GEN NMR

erre ene a

0 1
  C     -463.581    -644.090    -508.868
  O     -463.591    -644.637    -510.172
  P     -464.905    -644.571    -511.089
  C     -464.376    -642.387    -512.333
  O     -465.221    -643.026    -511.385
  C     -465.175    -641.868    -513.522
  O     -465.842    -642.973    -514.183
  C     -466.241    -640.827    -513.153
  O     -466.253    -639.840    -514.207
  C     -467.529    -641.627    -513.161
  O     -468.669    -640.816    -513.338
  C     -467.234    -642.614    -514.296
  N     -468.087    -643.792    -514.242
  C     -469.389    -643.656    -514.706
  O     -469.822    -642.538    -515.029
  N     -470.184    -644.768    -514.792
  C     -469.774    -645.891    -514.265
  N     -470.558    -646.981    -514.429
  C     -468.494    -646.008    -513.539
  C     -467.694    -644.944    -513.596
  O     -466.067    -645.356    -510.588
  O     -464.412    -645.111    -512.512
  H     -465.005    -645.841    -512.798
  H     -468.551    -640.278    -514.156
  H     -468.253    -646.917    -513.010
  H     -466.719    -644.951    -513.105
  H     -467.374    -642.129    -515.272
  H     -467.629    -642.154    -512.206
  H     -466.035    -640.328    -512.207
  H     -464.466    -641.444    -514.249
  H     -471.407    -646.875    -514.971
  H     -463.648    -643.131    -512.689
  H     -470.189    -647.929    -514.349
  H     -463.819    -641.573    -511.854
  P     -466.180    -638.293    -513.792
  C     -463.641    -637.768    -513.835
  O     -464.784    -638.039    -513.056
  O     -467.228    -638.230    -512.577
  O     -466.578    -637.310    -514.843
  H     -467.579    -637.320    -512.499
  H     -462.780    -637.696    -513.170
  H     -463.760    -636.819    -514.364
  H     -463.460    -638.577    -514.546
  H     -462.617    -644.236    -508.427
  H     -464.324    -644.577    -508.271
  H     -463.795    -643.043    -508.919

 3  4  5  6  7  8  9  10  11  12  13  24  27  28  29  30  32 0
 6-311+G(2d,p)
 ****
 34  35 0
 6-311+G(2d,p)
 ****
 1  2  14  15  16  17  18  19  20  21  22  23  25  26 0
 3-21G
 ****
 31  33  36  37  38  39  40  41  42  43  44  45  46 0
 3-21G
 ****


