%nproc=1
%NoSave
%Mem=1900MB
#P OB98/GEN NMR

erre ene a

0 1
  C      -11.804     122.550      36.672
  O      -11.205     121.727      37.650
  P       -9.675     121.269      37.530
  C      -10.337     119.190      36.157
  O       -9.561     120.383      36.191
  C       -9.935     118.328      34.954
  O      -10.247     119.062      33.728
  C       -8.428     117.992      34.933
  O       -8.134     116.600      34.803
  C       -7.901     118.878      33.815
  O       -6.668     118.447      33.271
  C       -9.102     118.923      32.862
  N       -9.005     120.008      31.887
  C       -8.225     119.776      30.757
  O       -7.630     118.727      30.526
  N       -8.088     120.832      29.897
  C       -8.543     122.101      30.107
  O       -8.298     123.023      29.340
  C       -9.327     122.294      31.337
  C       -9.540     121.254      32.148
  O       -9.105     120.618      38.745
  O       -8.924     122.618      37.099
  H       -6.770     117.516      32.999
  H       -9.232     123.009      36.262
  H       -7.525     120.679      29.074
  H       -9.692     123.292      31.534
  H      -10.114     121.368      33.063
  H       -9.216     117.981      32.321
  H       -7.732     119.879      34.233
  H       -7.951     118.277      35.877
  H      -10.542     117.417      34.977
  H      -11.392     119.458      36.069
  H      -10.216     118.640      37.097
  P       -6.739     115.914      35.184
  C       -5.830     115.433      32.794
  O       -5.708     116.180      33.987
  O       -6.829     114.495      35.637
  O       -6.176     116.847      36.361
  H       -5.614     116.315      36.957
  H       -4.841     115.346      32.333
  H       -6.493     115.964      32.104
  H       -6.224     114.431      32.984
  H      -12.823     122.737      36.939
  H      -11.769     122.059      35.722
  H      -11.274     123.478      36.613

 3  4  5  6  7  8  9  10  11  12  13  23  28  29  30  31  32 0
 6-311+G(2d,p)
 ****
 33  34 0
 6-311+G(2d,p)
 ****
 1  2  14  15  16  17  18  19  20  21  22  24  25  26  27 0
 3-21G
 ****
 35  36  37  38  39  40  41  42  43  44  45 0
 3-21G
 ****


