%nproc=1
%NoSave
%Mem=1900MB
#P OB98/GEN NMR

erre ene a

0 1
  C      634.150     593.679     724.614
  O      633.284     593.011     723.716
  H      633.701     593.695     725.614
  H      635.100     593.132     724.665
  H      634.352     594.692     724.274
  P      631.960     593.781     723.256
  C      630.590     592.693     725.178
  O      630.713     592.906     723.776
  C      629.258     592.004     725.496
  O      628.171     592.876     725.039
  C      629.072     590.626     724.824
  O      628.408     589.763     725.756
  C      628.146     590.924     723.665
  O      627.378     589.790     723.264
  C      627.288     592.049     724.248
  N      622.819     593.172     722.094
  C      623.129     592.597     723.269
  N      624.353     592.387     723.793
  C      625.308     592.883     722.995
  C      625.150     593.502     721.771
  C      623.829     593.623     721.299
  N      623.504     594.141     720.070
  N      626.378     593.844     721.221
  C      627.277     593.405     722.108
  N      626.671     592.820     723.190
  O      631.955     593.540     721.671
  O      631.909     595.239     723.603
  H      626.932     589.423     724.047
  H      632.473     594.238     721.237
  H      622.287     592.262     723.870
  H      628.338     593.456     721.982
  H      626.489     591.686     724.899
  H      628.727     591.287     722.810
  H      630.023     590.164     724.506
  H      629.164     591.922     726.579
  H      630.638     593.658     725.683
  H      622.532     594.088     719.781
  H      624.249     594.380     719.431
  H      631.427     592.068     725.520
  P      629.319     588.892     726.752
  C      629.635     586.794     725.232
  O      629.088     587.341     726.436
  O      628.613     589.097     728.174
  O      630.762     589.328     726.782
  H      629.274     589.090     728.887
  H      629.393     585.753     725.171
  H      630.698     586.913     725.237
  H      629.222     587.306     724.388

 6  7  8  9  10  11  12  13  14  15  25  28  32  33  34  35 0
 6-311+G(2d,p)
 ****
 36  39  40 0
 6-311+G(2d,p)
 ****
 1  2  3  4  5  16  17  18  19  20  21  22  23  24 0
 3-21G
 ****
 26  27  29  30  31  37  38  41  42  43  44  45  46  47 0
 3-21G
 ****
 48 0
 3-21G
 ****


