%nproc=1
%NoSave
%Mem=1900MB
#P OB98/GEN NMR

erre ene a

0 1
  C      -55.294     102.848      -9.078
  O      -55.540     104.242      -9.084
  H      -54.688     102.604      -8.202
  H      -54.744     102.553      -9.976
  H      -56.234     102.294      -9.020
  P      -56.410     104.853     -10.283
  C      -56.205     104.863     -12.857
  O      -55.560     104.598     -11.619
  C      -55.302     105.710     -13.747
  O      -55.051     106.990     -13.135
  C      -53.936     105.082     -14.020
  O      -54.032     104.114     -15.053
  C      -53.143     106.313     -14.426
  O      -53.481     106.686     -15.776
  C      -53.676     107.364     -13.434
  N      -49.387     108.917     -11.222
  C      -49.762     108.949     -12.552
  N      -48.843     109.426     -13.420
  N      -50.922     108.535     -12.992
  C      -51.708     108.020     -12.018
  C      -51.441     107.918     -10.672
  C      -50.178     108.433     -10.188
  O      -49.812     108.438      -9.016
  N      -52.455     107.280     -10.004
  C      -53.351     107.030     -10.940
  N      -52.939     107.447     -12.184
  O      -56.865     106.272     -10.118
  O      -57.639     103.840     -10.428
  H      -52.973     107.494     -15.977
  H      -58.402     104.131      -9.897
  H      -48.472     109.235     -10.950
  H      -54.309     106.555     -10.772
  H      -53.696     108.371     -13.866
  H      -52.065     106.162     -14.390
  H      -47.861     109.484     -13.180
  H      -53.490     104.666     -13.110
  H      -49.080     109.411     -14.405
  H      -55.840     105.903     -14.685
  H      -57.137     105.397     -12.638
  H      -56.450     103.926     -13.368
  P      -53.554     102.599     -14.815
  C      -51.201     101.618     -14.388
  O      -51.966     102.626     -15.036
  O      -54.279     101.578     -15.627
  O      -53.681     102.380     -13.238
  H      -54.574     102.062     -12.954
  H      -50.165     101.753     -14.619
  H      -51.520     100.655     -14.728
  H      -51.343     101.688     -13.330

 6  7  8  9  10  11  12  13  14  15  26  29  33  34 0
 6-311+G(2d,p)
 ****
 36  38  39  40  41 0
 6-311+G(2d,p)
 ****
 1  2  3  4  5  16  17  18  19  20  21  22  23  24  25 0
 3-21G
 ****
 27  28  30  31  32  35  37  42  43  44  45  46  47 0
 3-21G
 ****
 48  49 0
 3-21G
 ****


