%nproc=1
%NoSave
%Mem=1900MB
#P OB98/GEN NMR

erre ene a

0 1
  C     -615.669    1082.559    -661.017
  O     -616.521    1081.792    -660.192
  H     -616.265    1082.987    -661.829
  H     -614.895    1081.920    -661.448
  H     -615.210    1083.375    -660.447
  P     -615.892    1081.243    -658.819
  C     -618.141    1080.143    -658.097
  O     -616.752    1079.948    -658.408
  C     -618.892    1078.827    -658.281
  O     -619.016    1078.510    -659.692
  C     -618.238    1077.614    -657.620
  O     -618.553    1077.544    -656.238
  C     -618.891    1076.493    -658.386
  O     -620.233    1076.282    -657.907
  C     -618.931    1077.051    -659.814
  N     -617.226    1074.400    -663.791
  C     -618.507    1074.464    -663.248
  N     -619.455    1073.740    -663.859
  N     -618.810    1075.219    -662.218
  C     -617.754    1075.889    -661.717
  C     -616.441    1075.880    -662.146
  C     -616.128    1075.070    -663.310
  O     -615.007    1074.974    -663.828
  N     -615.655    1076.696    -661.395
  C     -616.468    1077.190    -660.471
  N     -617.760    1076.722    -660.620
  O     -616.328    1082.338    -657.746
  O     -614.409    1081.051    -658.825
  H     -620.195    1076.283    -656.939
  H     -615.619    1082.445    -657.076
  H     -617.046    1073.803    -664.589
  H     -616.187    1077.881    -659.692
  H     -619.804    1076.719    -660.387
  H     -618.356    1075.535    -658.288
  H     -619.275    1073.112    -664.627
  H     -617.156    1077.609    -657.793
  H     -620.403    1073.823    -663.507
  H     -619.914    1078.974    -657.892
  H     -618.544    1080.891    -658.773
  H     -618.225    1080.485    -657.066
  P     -617.332    1077.366    -655.209
  C     -618.422    1079.103    -653.607
  O     -617.911    1077.789    -653.774
  O     -616.374    1078.595    -655.591
  O     -616.627    1076.078    -655.282
  H     -615.458    1078.411    -655.299
  H     -618.767    1079.226    -652.602
  H     -619.235    1079.258    -654.285
  H     -617.649    1079.815    -653.809

 6  7  8  9  10  11  12  13  14  15  26  29  33  34 0
 6-311+G(2d,p)
 ****
 36  38  39  40  41 0
 6-311+G(2d,p)
 ****
 1  2  3  4  5  16  17  18  19  20  21  22  23  24  25 0
 3-21G
 ****
 27  28  30  31  32  35  37  42  43  44  45  46  47 0
 3-21G
 ****
 48  49 0
 3-21G
 ****


