%nproc=1
%NoSave
%Mem=1900MB
#P OB98/GEN NMR

erre ene a

0 1
  C      169.065      60.650    -351.002
  O      168.292      61.606    -351.705
  P      167.803      61.214    -353.184
  C      167.805      63.768    -353.698
  O      168.148      62.458    -354.134
  C      168.305      64.803    -354.698
  O      169.745      64.812    -354.727
  C      167.872      64.556    -356.137
  O      166.513      64.911    -356.333
  C      168.874      65.429    -356.885
  O      168.467      66.805    -356.828
  C      170.155      65.223    -356.059
  N      173.585      64.210    -359.724
  C      172.858      65.316    -359.450
  N      171.949      65.501    -358.471
  C      171.825      64.394    -357.721
  C      172.483      63.187    -357.892
  C      173.404      63.116    -358.948
  N      174.141      61.984    -359.228
  N      172.080      62.271    -356.944
  C      171.205      62.918    -356.204
  N      171.028      64.209    -356.625
  O      166.211      61.267    -353.069
  O      168.286      59.884    -353.673
  H      167.614      66.876    -357.302
  H      165.795      60.593    -353.639
  H      173.030      66.167    -360.103
  H      170.680      62.500    -355.357
  H      170.742      66.142    -355.955
  H      168.976      65.158    -357.941
  H      168.021      63.502    -356.405
  H      167.961      65.791    -354.363
  H      168.268      63.962    -352.725
  H      174.664      61.970    -360.089
  H      173.902      61.130    -358.738
  H      166.719      63.827    -353.579
  P      165.633      63.961    -357.281
  C      163.574      65.249    -356.446
  O      164.316      64.832    -357.578
  O      165.102      62.869    -356.244
  O      166.347      63.432    -358.477
  H      164.734      63.276    -355.440
  H      162.742      65.871    -356.787
  H      164.207      65.835    -355.775
  H      163.172      64.379    -355.920
  H      169.321      61.038    -350.038
  H      169.959      60.441    -351.551
  H      168.499      59.750    -350.885

 3  4  5  6  7  8  9  10  11  12  22  25  29  30  31  32 0
 6-311+G(2d,p)
 ****
 33  36  37 0
 6-311+G(2d,p)
 ****
 1  2  13  14  15  16  17  18  19  20  21  23  24  26 0
 3-21G
 ****
 27  28  34  35  38  39  40  41  42  43  44  45  46  47  48 0
 3-21G
 ****


