%nproc=1
%NoSave
%Mem=1900MB
#P OB98/GEN NMR

erre ene a

0 1
  C      159.152    -274.011    -157.645
  O      159.341    -272.918    -158.534
  P      160.808    -272.717    -159.157
  C      163.105    -272.010    -158.179
  O      161.703    -272.124    -157.964
  C      163.806    -271.553    -156.907
  O      163.328    -272.318    -155.786
  C      165.315    -271.743    -156.914
  O      165.979    -270.700    -157.612
  C      165.625    -271.686    -155.425
  O      165.700    -270.311    -154.997
  C      164.395    -272.373    -154.806
  N      165.523    -275.567    -151.042
  C      165.355    -274.195    -151.021
  N      165.481    -273.592    -149.817
  N      165.093    -273.479    -152.079
  C      164.955    -274.218    -153.205
  C      165.096    -275.580    -153.354
  C      165.441    -276.357    -152.181
  O      165.663    -277.565    -152.153
  N      164.866    -275.969    -154.649
  C      164.548    -274.853    -155.274
  N      164.618    -273.759    -154.447
  O      160.616    -271.462    -160.131
  O      161.361    -273.900    -159.874
  H      166.446    -269.905    -155.478
  H      161.288    -271.486    -160.840
  H      165.708    -276.070    -150.194
  H      164.267    -274.791    -156.316
  H      164.044    -271.835    -153.920
  H      166.582    -272.153    -155.169
  H      165.553    -274.102    -148.951
  H      165.588    -272.726    -157.308
  H      165.328    -272.594    -149.775
  H      163.551    -270.499    -156.733
  H      163.288    -271.276    -158.970
  H      163.491    -272.979    -158.508
  P      167.511    -270.966    -158.016
  C      169.583    -271.446    -156.526
  O      168.341    -270.783    -156.658
  O      167.892    -269.675    -158.882
  O      167.738    -272.236    -158.765
  H      168.615    -269.885    -159.502
  H      170.126    -271.473    -157.477
  H      169.418    -272.466    -156.173
  H      170.191    -270.911    -155.794
  H      158.136    -274.025    -157.308
  H      159.805    -273.904    -156.804
  H      159.372    -274.926    -158.153

 3  4  5  6  7  8  9  10  11  12  23  26  30  31  33  0
 6-311+G(2d,p)
 ****
 35  36  37  38 0
 6-311+G(2d,p)
 ****
 1  2  13  14  15  16  17  18  19  20  21  22  24  25  27  28  29 0
 3-21G
 ****
 32  34  39  40  41  42  43  44  45  46  47  48  49 0
 3-21G
 ****


