%nproc=1
%NoSave
%Mem=1900MB
#P OB98/GEN NMR

erre ene a

0 1
  C     -394.468    -475.858     354.168
  O     -393.179    -475.768     354.748
  P     -393.056    -475.741     356.344
  C     -390.914    -477.212     356.232
  O     -391.522    -476.025     356.719
  C     -389.393    -477.034     356.150
  O     -389.086    -475.914     355.265
  C     -388.720    -476.748     357.498
  O     -387.420    -477.359     357.472
  C     -388.572    -475.240     357.479
  O     -387.601    -474.758     358.390
  C     -388.225    -475.020     356.001
  N     -388.396    -473.632     355.576
  C     -387.332    -472.764     355.789
  O     -386.265    -473.093     356.312
  N     -387.546    -471.460     355.436
  C     -388.723    -470.933     354.988
  O     -388.884    -469.728     354.803
  C     -389.815    -471.896     354.783
  C     -389.605    -473.179     355.082
  O     -393.810    -477.081     356.795
  O     -393.634    -474.527     356.993
  H     -387.819    -475.116     359.275
  H     -394.712    -476.877     357.101
  H     -386.777    -470.815     355.576
  H     -390.751    -471.514     354.407
  H     -390.400    -473.911     354.957
  H     -387.194    -475.339     355.809
  H     -389.532    -474.777     357.737
  H     -389.295    -477.110     358.362
  H     -388.963    -477.933     355.690
  H     -391.302    -477.434     355.239
  H     -391.171    -478.054     356.889
  P     -386.828    -477.924     358.859
  C     -385.089    -479.552     357.771
  O     -385.327    -478.397     358.552
  O     -387.644    -479.292     358.995
  O     -387.011    -476.993     360.011
  H     -387.710    -479.784     358.158
  H     -385.845    -479.670     356.992
  H     -385.098    -480.432     358.419
  H     -384.107    -479.465     357.304
  H     -394.380    -475.865     353.102
  H     -395.055    -475.017     354.472
  H     -394.943    -476.760     354.492

 3  4  5  6  7  8  9  10  11  12  13  23  28  29  30  31  32 0
 6-311+G(2d,p)
 ****
 33  34 0
 6-311+G(2d,p)
 ****
 1  2  14  15  16  17  18  19  20  21  22  24  25  26 0
 3-21G
 ****
 27  35  36  37  38  39  40  41  42  43  44  45 0
 3-21G
 ****


