%nproc=1
%NoSave
%Mem=1900MB
#P OB98/GEN NMR

erre ene a

0 1
  C      244.722    -138.062    -572.607
  O      243.453    -137.649    -572.049
  P      242.575    -138.718    -571.218
  C      243.645    -138.525    -568.836
  O      243.472    -139.299    -570.014
  C      243.923    -139.447    -567.648
  O      245.016    -140.340    -567.942
  C      244.336    -138.722    -566.373
  O      243.227    -138.129    -565.708
  C      244.981    -139.856    -565.577
  O      243.979    -140.631    -564.881
  C      245.645    -140.697    -566.690
  N      247.092    -140.497    -566.743
  C      247.875    -141.626    -566.983
  O      247.393    -142.759    -567.082
  N      249.214    -141.423    -567.053
  C      249.865    -140.227    -566.863
  O      251.084    -140.118    -566.916
  C      249.007    -139.093    -566.528
  C      247.679    -139.274    -566.477
  O      242.533    -139.959    -572.228
  O      241.194    -138.277    -570.859
  H      244.462    -141.346    -564.421
  H      241.715    -140.475    -572.076
  H      249.808    -142.227    -567.258
  H      249.478    -138.122    -566.344
  H      247.044    -138.440    -566.232
  H      245.447    -141.759    -566.534
  H      245.670    -139.491    -564.812
  H      245.107    -137.971    -566.612
  H      243.027    -140.062    -567.458
  H      242.727    -137.953    -568.646
  H      244.472    -137.816    -568.979
  P      243.116    -136.528    -565.779
  C      241.379    -136.330    -567.724
  O      242.715    -136.203    -567.284
  O      244.660    -136.121    -565.654
  O      242.238    -135.953    -564.715
  H      245.252    -136.767    -566.087
  H      240.659    -136.118    -566.910
  H      241.212    -137.365    -568.071
  H      241.183    -135.646    -568.566
  H      245.170    -137.238    -573.122
  H      244.565    -138.869    -573.292
  H      245.370    -138.385    -571.819

 3  4  5  6  7  8  9  10  11  12  13  23  28  29  30  31  32 0
 6-311+G(2d,p)
 ****
 33  34 0
 6-311+G(2d,p)
 ****
 1  2  14  15  16  17  18  19  20  21  22  24  25  26 0
 3-21G
 ****
 27  35  36  37  38  39  40  41  42  43  44  45 0
 3-21G
 ****


