%nproc=1
%NoSave
%Mem=1900MB
#P OB98/GEN NMR

erre ene a

0 1
  C      654.370    -527.556       0.582
  O      653.259    -527.451       1.480
  P      653.221    -526.157       2.431
  C      654.383    -527.242       4.502
  O      654.461    -526.278       3.457
  C      655.543    -527.075       5.479
  O      656.786    -527.519       4.903
  C      655.797    -525.639       5.906
  O      654.889    -525.211       6.917
  C      657.220    -525.740       6.457
  O      657.176    -526.221       7.820
  C      657.856    -526.797       5.539
  N      662.009    -524.031       4.592
  C      661.456    -524.414       5.797
  N      662.115    -524.034       6.916
  N      660.346    -525.113       5.902
  C      659.824    -525.457       4.700
  C      660.265    -525.130       3.452
  C      661.469    -524.331       3.349
  O      661.981    -523.923       2.299
  N      659.454    -525.663       2.470
  C      658.530    -526.328       3.133
  N      658.700    -526.215       4.505
  O      651.946    -526.410       3.362
  O      653.127    -524.864       1.694
  H      656.646    -525.574       8.333
  H      651.573    -525.573       3.670
  H      662.851    -523.485       4.566
  H      657.735    -526.897       2.684
  H      658.454    -527.527       6.097
  H      657.731    -524.774       6.478
  H      663.011    -523.561       6.914
  H      655.794    -524.958       5.034
  H      661.740    -524.334       7.815
  H      655.332    -527.683       6.362
  H      654.416    -528.251       4.073
  H      653.418    -527.138       5.012
  P      653.737    -524.189       6.474
  C      654.904    -521.958       7.084
  O      654.468    -522.836       6.050
  O      653.022    -523.845       7.858
  O      652.767    -524.739       5.470
  H      652.085    -523.623       7.719
  H      655.378    -522.519       7.904
  H      654.066    -521.394       7.466
  H      655.640    -521.273       6.664
  H      654.281    -528.454       0.008
  H      655.281    -527.580       1.143
  H      654.378    -526.712      -0.075

 3  4  5  6  7  8  9  10  11  12  23  26  30  31  33  0
 6-311+G(2d,p)
 ****
 35  36  37  38 0
 6-311+G(2d,p)
 ****
 1  2  13  14  15  16  17  18  19  20  21  22  24  25  27  28  29 0
 3-21G
 ****
 32  34  39  40  41  42  43  44  45  46  47  48  49 0
 3-21G
 ****


