%nproc=1
%NoSave
%Mem=1900MB
#P OB98/GEN NMR

erre ene a

0 1
  C     -602.330    -899.004    -124.371
  O     -603.356    -898.414    -125.191
  P     -603.156    -896.914    -125.721
  C     -605.417    -895.854    -124.939
  O     -604.581    -896.224    -126.025
  C     -606.567    -894.934    -125.402
  O     -606.035    -893.714    -125.983
  C     -607.495    -895.564    -126.459
  O     -608.805    -895.044    -126.242
  C     -606.930    -895.024    -127.759
  O     -607.857    -895.084    -128.848
  C     -606.552    -893.594    -127.316
  N     -605.592    -892.944    -128.208
  C     -605.991    -891.734    -128.808
  O     -607.134    -891.234    -128.704
  N     -605.051    -891.104    -129.579
  C     -603.777    -891.584    -129.839
  O     -602.991    -891.014    -130.575
  C     -603.435    -892.874    -129.185
  C     -604.358    -893.474    -128.412
  O     -602.588    -897.154    -127.207
  O     -602.212    -896.054    -124.937
  H     -608.638    -894.574    -128.598
  H     -601.811    -896.554    -127.362
  H     -605.308    -890.254    -130.030
  H     -602.443    -893.254    -129.368
  H     -604.106    -894.374    -127.911
  H     -607.480    -892.994    -127.242
  H     -606.049    -895.604    -128.046
  H     -607.506    -896.664    -126.420
  H     -607.150    -894.644    -124.524
  H     -604.832    -895.324    -124.192
  H     -605.833    -896.764    -124.475
  P     -610.056    -896.074    -126.227
  C     -611.766    -894.834    -127.769
  O     -611.377    -895.214    -126.466
  O     -610.111    -896.424    -124.654
  O     -609.863    -897.284    -127.071
  H     -610.037    -895.614    -124.091
  H     -611.597    -895.654    -128.479
  H     -611.183    -893.974    -128.088
  H     -612.821    -894.594    -127.763
  H     -602.616    -900.000    -124.104
  H     -602.202    -898.420    -123.484
  H     -601.410    -899.031    -124.916

 3  4  5  6  7  8  9  10  11  12  13  23  28  29  30  31  32 0
 6-311+G(2d,p)
 ****
 33  34 0
 6-311+G(2d,p)
 ****
 1  2  14  15  16  17  18  19  20  21  22  24  25  26 0
 3-21G
 ****
 27  35  36  37  38  39  40  41  42  43  44  45 0
 3-21G
 ****


