%nproc=1
%NoSave
%Mem=1900MB
#P OB98/GEN NMR

erre ene a

0 1
  C      955.398    -408.785    1123.220
  O      955.468    -409.243    1121.889
  H      956.399    -408.533    1123.569
  H      954.976    -409.548    1123.875
  H      954.770    -407.879    1123.276
  P      954.090    -409.700    1121.209
  C      952.138    -411.114    1122.195
  O      953.548    -410.891    1122.152
  C      951.852    -412.550    1122.628
  O      952.235    -412.742    1124.018
  C      950.368    -412.935    1122.550
  O      950.043    -413.356    1121.231
  C      950.320    -414.116    1123.528
  O      950.805    -415.310    1122.876
  C      951.310    -413.684    1124.636
  N      949.968    -414.364    1129.533
  C      950.396    -415.243    1128.590
  N      950.682    -415.008    1127.274
  C      950.514    -413.707    1126.997
  C      950.085    -412.696    1127.876
  C      949.824    -413.082    1129.194
  N      949.397    -412.182    1130.145
  N      950.015    -411.480    1127.218
  C      950.448    -411.745    1125.983
  N      950.723    -413.073    1125.803
  O      954.149    -409.995    1119.735
  O      953.119    -408.473    1121.614
  H      951.730    -415.119    1122.598
  H      953.297    -408.195    1122.534
  H      950.505    -416.274    1128.924
  H      950.606    -410.972    1125.226
  H      951.920    -414.546    1124.981
  H      949.309    -414.335    1123.874
  H      949.727    -412.142    1122.926
  H      952.460    -413.238    1122.029
  H      951.714    -410.927    1121.198
  H      949.028    -412.559    1131.017
  H      949.170    -411.250    1129.854
  H      951.704    -410.390    1122.893
  P      948.600    -414.000    1120.899
  C      947.315    -416.044    1121.742
  O      948.559    -415.374    1121.720
  O      948.295    -414.109    1119.438
  O      947.566    -413.059    1121.698
  H      946.645    -413.197    1121.367
  H      947.404    -416.943    1122.315
  H      947.023    -416.286    1120.742
  H      946.576    -415.410    1122.186

 6  7  8  9  10  11  12  13  14  15  25  28  32  33  34  35 0
 6-311+G(2d,p)
 ****
 36  39  40 0
 6-311+G(2d,p)
 ****
 1  2  3  4  5  16  17  18  19  20  21  22  23  24 0
 3-21G
 ****
 26  27  29  30  31  37  38  41  42  43  44  45  46  47 0
 3-21G
 ****
 48 0
 3-21G
 ****


