%nproc=1
%NoSave
%Mem=1900MB
#P OB98/GEN NMR

erre ene a

0 1
  C      429.939      31.778    -444.949
  O      430.436      31.152    -443.784
  H      429.619      32.791    -444.694
  H      429.079      31.223    -445.330
  H      430.716      31.837    -445.718
  P      431.149      29.728    -443.980
  C      429.944      28.737    -441.905
  O      431.184      29.033    -442.533
  C      429.971      27.326    -441.323
  O      430.074      26.347    -442.382
  C      431.142      27.059    -440.383
  O      430.882      27.534    -439.067
  C      431.188      25.540    -440.418
  O      430.136      25.001    -439.595
  C      430.905      25.252    -441.898
  N      433.148      22.741    -445.687
  C      431.916      22.538    -445.095
  N      431.180      21.513    -445.572
  N      431.448      23.270    -444.117
  C      432.299      24.251    -443.732
  C      433.541      24.554    -444.241
  C      434.045      23.740    -445.327
  O      435.116      23.892    -445.905
  N      434.097      25.629    -443.602
  C      433.205      25.966    -442.692
  N      432.096      25.158    -442.726
  O      432.684      30.114    -444.237
  O      430.609      28.888    -445.085
  H      429.299      25.356    -439.941
  H      433.064      29.485    -444.882
  H      433.465      22.141    -446.429
  H      433.312      26.782    -441.991
  H      430.340      24.324    -442.042
  H      432.130      25.138    -440.042
  H      431.503      20.881    -446.291
  H      432.081      27.463    -440.782
  H      430.260      21.364    -445.179
  H      429.016      27.155    -440.809
  H      429.140      28.806    -442.643
  H      429.765      29.470    -441.110
  P      431.944      28.552    -438.419
  C      432.037      27.401    -436.093
  O      431.643      28.545    -436.844
  O      431.404      29.982    -438.894
  O      433.361      28.325    -438.822
  H      432.130      30.634    -438.885
  H      431.773      27.540    -435.066
  H      433.096      27.268    -436.174
  H      431.539      26.535    -436.475

 6  7  8  9  10  11  12  13  14  15  26  29  33  34 0
 6-311+G(2d,p)
 ****
 36  38  39  40  41 0
 6-311+G(2d,p)
 ****
 1  2  3  4  5  16  17  18  19  20  21  22  23  24  25 0
 3-21G
 ****
 27  28  30  31  32  35  37  42  43  44  45  46  47 0
 3-21G
 ****
 48  49 0
 3-21G
 ****


