%nproc=1
%NoSave
%Mem=1900MB
#P OB98/GEN NMR

erre ene a

0 1
  C     -633.395    -882.233     176.505
  O     -633.368    -880.848     176.210
  H     -633.552    -882.364     177.581
  H     -632.446    -882.691     176.232
  H     -634.222    -882.724     175.967
  P     -633.355    -880.438     174.664
  C     -631.073    -879.254     174.991
  O     -631.819    -880.214     174.257
  C     -629.865    -878.786     174.169
  O     -629.029    -879.915     173.824
  C     -630.231    -878.103     172.850
  O     -630.578    -876.737     173.036
  C     -628.938    -878.262     172.083
  O     -627.975    -877.287     172.551
  C     -628.493    -879.684     172.482
  N     -627.112    -883.298     169.220
  C     -626.333    -882.420     169.943
  N     -625.006    -882.499     169.762
  N     -626.829    -881.521     170.768
  C     -628.173    -881.552     170.834
  C     -629.056    -882.381     170.175
  C     -628.513    -883.374     169.283
  O     -629.155    -884.188     168.635
  N     -630.359    -882.106     170.516
  C     -630.261    -881.096     171.365
  N     -628.962    -880.707     171.586
  O     -633.949    -878.948     174.672
  O     -634.144    -881.330     173.758
  H     -627.136    -877.506     172.119
  H     -634.495    -878.820     173.874
  H     -626.707    -883.972     168.588
  H     -631.105    -880.625     171.843
  H     -627.396    -879.770     172.545
  H     -629.047    -878.099     171.007
  H     -624.580    -883.131     169.096
  H     -631.027    -878.657     172.334
  H     -624.418    -881.880     170.283
  H     -629.276    -878.111     174.792
  H     -630.708    -879.702     175.917
  H     -631.722    -878.406     175.235
  P     -631.411    -876.012     171.875
  C     -629.346    -874.479     171.485
  O     -630.326    -875.352     170.897
  O     -632.067    -874.753     172.625
  O     -632.454    -876.867     171.211
  H     -632.862    -874.468     172.159
  H     -628.691    -874.113     170.722
  H     -628.778    -875.019     172.213
  H     -629.840    -873.655     171.957

 6  7  8  9  10  11  12  13  14  15  26  29  33  34 0
 6-311+G(2d,p)
 ****
 36  38  39  40  41 0
 6-311+G(2d,p)
 ****
 1  2  3  4  5  16  17  18  19  20  21  22  23  24  25 0
 3-21G
 ****
 27  28  30  31  32  35  37  42  43  44  45  46  47 0
 3-21G
 ****
 48  49 0
 3-21G
 ****


