%nproc=1
%NoSave
%Mem=1900MB
#P OB98/GEN NMR

erre ene a

0 1
  C      543.502    -772.938    -665.372
  O      543.923    -774.132    -665.999
  H      544.103    -772.781    -664.461
  H      542.447    -773.005    -665.088
  H      543.644    -772.086    -666.039
  P      543.085    -774.589    -667.291
  C      545.103    -775.493    -668.691
  O      543.960    -775.802    -667.895
  C      545.820    -776.786    -669.072
  O      546.455    -777.378    -667.924
  C      544.911    -777.865    -669.642
  O      544.569    -777.632    -671.000
  C      545.788    -779.096    -669.472
  O      546.811    -779.090    -670.496
  C      546.405    -778.828    -668.075
  N      545.627    -779.435    -666.996
  C      546.026    -780.718    -666.589
  O      546.973    -781.294    -667.135
  N      545.321    -781.335    -665.585
  C      544.316    -780.726    -665.024
  N      543.642    -781.406    -664.038
  C      543.887    -779.376    -665.408
  C      544.573    -778.785    -666.380
  O      543.346    -773.411    -668.349
  O      541.640    -774.906    -667.066
  H      546.397    -779.431    -671.314
  H      542.978    -773.665    -669.231
  H      543.026    -778.922    -664.905
  H      544.312    -777.800    -666.720
  H      547.435    -779.194    -668.020
  H      545.243    -780.028    -669.563
  H      544.004    -777.990    -669.032
  H      546.638    -776.528    -669.783
  H      543.932    -782.353    -663.849
  H      545.770    -774.847    -668.103
  H      542.746    -781.093    -663.676
  H      544.800    -774.964    -669.591
  P      543.023    -777.849    -671.431
  C      542.930    -775.849    -673.091
  O      542.862    -777.253    -672.915
  O      542.237    -776.780    -670.523
  O      542.509    -779.240    -671.243
  H      541.396    -777.143    -670.198
  H      542.806    -775.613    -674.127
  H      543.882    -775.493    -672.756
  H      542.154    -775.380    -672.523

 6  7  8  9  10  11  12  13  14  15  16  26  30  31  32  33  35 0
 6-311+G(2d,p)
 ****
 37  38 0
 6-311+G(2d,p)
 ****
 1  2  3  4  5  17  18  19  20  21  22  23  24  25 0
 3-21G
 ****
 27  28  29  34  36  39  40  41  42  43  44  45  46 0
 3-21G
 ****


