%nproc=1
%NoSave
%Mem=1900MB
#P OB98/GEN NMR

erre ene a

0 1
  C       56.168    -118.165    -284.960
  O       56.637    -117.263    -283.951
  P       55.898    -117.330    -282.524
  C       56.582    -118.499    -280.300
  O       56.522    -118.570    -281.720
  C       57.818    -119.225    -279.775
  O       57.876    -120.576    -280.272
  C       59.139    -118.594    -280.190
  O       59.462    -117.470    -279.385
  C       60.109    -119.738    -279.932
  O       60.471    -119.768    -278.540
  C       59.270    -120.975    -280.298
  N       61.374    -124.797    -282.874
  C       61.259    -124.607    -281.511
  N       61.752    -125.587    -280.722
  N       60.711    -123.551    -280.969
  C       60.236    -122.667    -281.880
  C       60.290    -122.741    -283.252
  C       60.927    -123.903    -283.839
  O       61.085    -124.105    -285.038
  N       59.693    -121.656    -283.840
  C       59.252    -120.937    -282.827
  N       59.569    -121.502    -281.614
  O       54.429    -117.841    -282.906
  O       55.869    -116.031    -281.796
  H       61.225    -119.155    -278.427
  H       53.785    -117.532    -282.241
  H       61.811    -125.627    -283.238
  H       58.698    -120.011    -282.915
  H       59.393    -121.780    -279.566
  H       61.041    -119.640    -280.500
  H       62.121    -126.458    -281.073
  H       59.135    -118.344    -281.261
  H       61.643    -125.480    -279.721
  H       57.751    -119.261    -278.678
  H       55.686    -118.949    -279.868
  H       56.585    -117.448    -279.997
  P       60.492    -116.400    -279.997
  C       60.364    -114.982    -282.165
  O       59.662    -115.582    -281.094
  O       61.488    -117.309    -280.859
  O       61.217    -115.588    -278.975
  H       62.368    -116.893    -280.908
  H       61.126    -115.657    -282.565
  H       60.837    -114.057    -281.822
  H       59.653    -114.744    -282.961
  H       56.735    -118.024    -285.856
  H       55.134    -117.972    -285.158
  H       56.284    -119.173    -284.619

 3  4  5  6  7  8  9  10  11  12  23  26  30  31  33  0
 6-311+G(2d,p)
 ****
 35  36  37  38 0
 6-311+G(2d,p)
 ****
 1  2  13  14  15  16  17  18  19  20  21  22  24  25  27  28  29 0
 3-21G
 ****
 32  34  39  40  41  42  43  44  45  46  47  48  49 0
 3-21G
 ****


