%nproc=1
%NoSave
%Mem=1900MB
#P OB98/GEN NMR

erre ene a

0 1
  C     -162.509    -338.043     733.058
  O     -163.402    -338.070     731.964
  P     -163.081    -337.247     730.626
  C     -164.323    -338.863     729.047
  O     -163.054    -338.310     729.420
  C     -164.243    -340.384     729.048
  O     -164.188    -340.908     730.404
  C     -165.465    -341.064     728.437
  O     -165.688    -340.886     727.053
  C     -165.285    -342.490     728.937
  O     -164.352    -343.213     728.117
  C     -164.711    -342.262     730.353
  N     -165.704    -342.506     731.397
  C     -165.848    -343.826     731.804
  O     -165.199    -344.759     731.329
  N     -166.802    -344.055     732.761
  C     -167.636    -343.131     733.303
  O     -168.500    -343.408     734.110
  C     -167.452    -341.746     732.820
  C     -166.511    -341.500     731.904
  O     -161.874    -336.363     730.701
  O     -164.455    -336.449     730.351
  H     -164.595    -343.056     727.183
  H     -165.225    -337.015     730.220
  H     -166.935    -345.008     733.058
  H     -168.094    -340.979     733.242
  H     -166.351    -340.479     731.533
  H     -163.853    -342.926     730.532
  H     -166.225    -343.050     728.912
  H     -166.361    -340.672     728.932
  H     -163.321    -340.690     728.546
  H     -164.568    -338.515     728.035
  H     -165.102    -338.492     729.726
  P     -166.394    -339.597     726.430
  C     -165.109    -338.765     724.333
  O     -165.271    -338.688     725.733
  O     -167.409    -338.907     727.291
  O     -167.142    -340.234     725.152
  H     -167.957    -339.721     724.977
  H     -164.279    -338.111     724.037
  H     -166.014    -338.416     723.821
  H     -164.881    -339.787     724.024
  H     -162.896    -338.650     733.850
  H     -162.397    -337.036     733.402
  H     -161.557    -338.423     732.751

 3  4  5  6  7  8  9  10  11  12  13  23  28  29  30  31  32 0
 6-311+G(2d,p)
 ****
 33  34 0
 6-311+G(2d,p)
 ****
 1  2  14  15  16  17  18  19  20  21  22  24  25  26  27 0
 3-21G
 ****
 35  36  37  38  39  40  41  42  43  44  45 0
 3-21G
 ****


