%nproc=1
%NoSave
%Mem=1900MB
#P OB98/GEN NMR

erre ene a

0 1
  C      -77.825      13.597      70.186
  O      -76.951      14.503      69.543
  H      -77.758      12.629      69.686
  H      -78.854      13.958      70.115
  H      -77.546      13.470      71.237
  P      -76.711      15.922      70.251
  C      -77.463      17.538      68.357
  O      -76.379      16.969      69.077
  C      -77.371      17.151      66.881
  O      -77.939      15.821      66.712
  C      -78.131      18.095      65.939
  O      -77.387      18.212      64.717
  C      -79.422      17.345      65.669
  O      -80.066      17.724      64.457
  C      -78.916      15.899      65.655
  N      -79.989      14.926      65.859
  C      -80.691      14.503      64.733
  O      -80.418      14.819      63.576
  N      -81.755      13.671      64.980
  C      -82.187      13.256      66.205
  O      -83.160      12.529      66.362
  C      -81.413      13.744      67.354
  C      -80.368      14.547      67.132
  O      -75.299      15.724      70.980
  O      -77.784      16.360      71.191
  H      -75.426      15.376      71.882
  H      -80.765      17.062      64.278
  H      -82.274      13.356      64.176
  H      -81.732      13.444      68.346
  H      -79.787      14.942      67.961
  H      -78.398      15.682      64.714
  H      -80.126      17.504      66.491
  H      -78.314      19.092      66.355
  H      -76.312      17.087      66.599
  H      -77.425      18.629      68.445
  H      -78.407      17.181      68.787
  P      -76.818      19.665      64.334
  C      -78.200      19.734      62.108
  O      -76.927      19.761      62.737
  O      -75.259      19.466      64.620
  O      -77.472      20.766      65.102
  H      -74.941      18.572      64.407
  H      -78.076      19.808      61.048
  H      -78.788      20.557      62.457
  H      -78.696      18.816      62.346

 6  7  8  9  10  11  12  13  14  15  16  27  31  32  33  34  35 0
 6-311+G(2d,p)
 ****
 36  37 0
 6-311+G(2d,p)
 ****
 1  2  3  4  5  17  18  19  20  21  22  23  24  25 0
 3-21G
 ****
 26  28  29  30  38  39  40  41  42  43  44  45 0
 3-21G
 ****


