%nproc=1
%NoSave
%Mem=1900MB
#P OB98/GEN NMR

erre ene a

0 1
  C      441.094    -250.944    -165.109
  O      440.725    -250.393    -163.860
  H      440.290    -250.798    -165.838
  H      441.991    -250.434    -165.468
  H      441.313    -252.011    -165.001
  P      439.440    -251.031    -163.147
  C      440.740    -252.668    -161.609
  O      439.860    -252.518    -162.712
  C      439.950    -253.017    -160.349
  O      438.870    -252.080    -160.167
  C      439.302    -254.395    -160.368
  O      440.230    -255.422    -160.053
  C      438.259    -254.233    -159.273
  O      438.885    -254.368    -157.982
  C      437.797    -252.784    -159.486
  N      432.727    -252.102    -159.327
  C      433.670    -252.088    -158.359
  N      435.003    -252.254    -158.481
  C      435.339    -252.440    -159.769
  C      434.498    -252.460    -160.866
  C      433.125    -252.289    -160.610
  N      432.163    -252.377    -161.604
  N      435.207    -252.692    -162.027
  C      436.457    -252.830    -161.631
  N      436.589    -252.677    -160.279
  O      438.430    -251.259    -164.371
  O      438.828    -250.194    -162.072
  H      439.019    -255.323    -157.836
  H      437.806    -250.512    -164.413
  H      433.305    -251.920    -157.351
  H      437.294    -253.038    -162.285
  H      437.621    -252.261    -158.539
  H      437.460    -254.977    -159.321
  H      438.792    -254.590    -161.318
  H      440.628    -252.919    -159.491
  H      441.284    -251.730    -161.448
  H      431.260    -252.701    -161.265
  H      432.494    -252.771    -162.472
  H      441.457    -253.461    -161.839
  P      440.135    -256.797    -160.875
  C      442.445    -256.481    -161.993
  O      441.044    -256.607    -162.186
  O      438.638    -256.763    -161.442
  O      440.386    -258.031    -160.083
  H      438.163    -257.570    -161.161
  H      442.926    -256.361    -162.941
  H      442.819    -257.360    -161.512
  H      442.645    -255.627    -161.381

 6  7  8  9  10  11  12  13  14  15  25  28  32  33  34  35 0
 6-311+G(2d,p)
 ****
 36  39  40 0
 6-311+G(2d,p)
 ****
 1  2  3  4  5  16  17  18  19  20  21  22  23  24 0
 3-21G
 ****
 26  27  29  30  31  37  38  41  42  43  44  45  46  47  48 0
 3-21G
 ****


