%nproc=1
%NoSave
%Mem=1900MB
#P OB98/GEN NMR

erre ene a

0 1
  C      -26.346     -14.725     161.573
  O      -27.487     -14.338     160.802
  P      -28.723     -15.358     160.783
  C      -30.349     -14.257     162.484
  O      -30.056     -14.535     161.121
  C      -31.862     -14.222     162.700
  O      -32.202     -14.250     164.103
  C      -32.522     -12.963     162.153
  O      -32.619     -13.011     160.739
  C      -33.859     -13.001     162.882
  O      -34.756     -13.925     162.243
  C      -33.456     -13.543     164.264
  N      -35.873     -10.717     167.778
  C      -36.310     -11.677     166.933
  N      -35.604     -12.380     166.025
  C      -34.311     -12.019     166.045
  C      -33.718     -11.062     166.852
  C      -34.560     -10.388     167.752
  N      -34.117      -9.401     168.603
  N      -32.368     -10.967     166.584
  C      -32.155     -11.835     165.615
  N      -33.296     -12.503     165.263
  O      -28.486     -16.250     162.090
  O      -28.790     -16.196     159.549
  H      -34.312     -14.797     162.226
  H      -28.204     -17.148     161.835
  H      -37.371     -11.909     166.994
  H      -31.198     -12.012     165.139
  H      -34.186     -14.258     164.658
  H      -34.359     -12.028     162.913
  H      -31.953     -12.075     162.457
  H      -32.296     -15.108     162.218
  H      -29.911     -13.300     162.778
  H      -34.800      -8.913     169.160
  H      -33.159      -9.087     168.531
  H      -29.878     -15.024     163.108
  P      -32.034     -11.771     159.908
  C      -29.514     -11.945     160.372
  O      -30.565     -12.262     159.478
  O      -31.726     -10.720     161.069
  O      -32.906     -11.288     158.800
  H      -31.275     -11.137     161.824
  H      -28.584     -12.363     159.979
  H      -29.711     -12.378     161.356
  H      -29.407     -10.861     160.455
  H      -25.595     -13.965     161.505
  H      -25.956     -15.647     161.195
  H      -26.633     -14.852     162.596

 3  4  5  6  7  8  9  10  11  12  22  25  29  30  31  32 0
 6-311+G(2d,p)
 ****
 33  36  37 0
 6-311+G(2d,p)
 ****
 1  2  13  14  15  16  17  18  19  20  21  23  24  26 0
 3-21G
 ****
 27  28  34  35  38  39  40  41  42  43  44  45  46  47  48 0
 3-21G
 ****


