%nproc=1
%NoSave
%Mem=1900MB
#P OB98/GEN NMR

erre ene a

0 1
  C      -32.108     281.801     397.353
  O      -32.671     281.324     398.557
  H      -31.589     282.741     397.554
  H      -32.906     281.991     396.630
  H      -31.395     281.083     396.941
  P      -33.134     279.789     398.594
  C      -35.590     280.580     398.317
  O      -34.559     279.721     397.855
  C      -36.943     279.872     398.245
  O      -37.255     279.605     396.844
  C      -36.995     278.532     398.998
  O      -38.292     278.383     399.589
  C      -36.863     277.515     397.880
  O      -37.397     276.245     398.237
  C      -37.629     278.218     396.764
  N      -39.678     275.796     392.877
  C      -40.269     276.420     393.957
  N      -41.613     276.337     394.056
  N      -39.596     277.069     394.871
  C      -38.262     277.091     394.643
  C      -37.555     276.510     393.618
  C      -38.310     275.779     392.620
  O      -37.842     275.186     391.654
  N      -36.206     276.708     393.777
  C      -36.099     277.387     394.906
  N      -37.319     277.642     395.469
  O      -33.499     279.571     400.137
  O      -32.119     278.804     398.117
  H      -36.747     275.789     398.810
  H      -32.733     279.194     400.609
  H      -40.241     275.296     392.211
  H      -35.171     277.697     395.364
  H      -38.717     278.147     396.893
  H      -35.808     277.384     397.613
  H      -42.201     275.884     393.376
  H      -36.224     278.425     399.768
  H      -42.063     276.827     394.822
  H      -37.716     280.555     398.619
  H      -35.622     281.474     397.688
  H      -35.373     280.881     399.346
  P      -38.411     278.496     401.184
  C      -40.332     276.760     401.448
  O      -38.991     277.113     401.753
  O      -39.630     279.514     401.383
  O      -37.170     278.991     401.850
  H      -39.476     280.062     402.175
  H      -40.564     275.817     401.898
  H      -40.449     276.687     400.387
  H      -40.994     277.509     401.830

 6  7  8  9  10  11  12  13  14  15  26  29  33  34 0
 6-311+G(2d,p)
 ****
 36  38  39  40  41 0
 6-311+G(2d,p)
 ****
 1  2  3  4  5  16  17  18  19  20  21  22  23  24  25 0
 3-21G
 ****
 27  28  30  31  32  35  37  42  43  44  45  46  47 0
 3-21G
 ****
 48  49 0
 3-21G
 ****


