%nproc=1
%NoSave
%Mem=1900MB
#P OB98/GEN NMR

erre ene a

0 1
  C     -807.989     777.489      41.299
  O     -808.276     776.750      42.480
  P     -807.916     775.197      42.484
  C     -810.303     774.284      42.903
  O     -809.233     774.431      41.982
  C     -811.023     772.960      42.685
  O     -811.328     772.790      41.291
  C     -810.205     771.720      43.081
  O     -810.253     771.482      44.479
  C     -810.937     770.638      42.308
  O     -812.104     770.220      43.049
  C     -811.360     771.363      41.020
  N     -810.680     768.566      36.841
  C     -811.727     768.590      37.736
  N     -812.755     767.752      37.472
  N     -811.755     769.327      38.801
  C     -810.683     770.147      38.912
  C     -809.587     770.232      38.092
  C     -809.529     769.346      36.952
  O     -808.595     769.255      36.159
  N     -808.705     771.193      38.537
  C     -809.288     771.709      39.592
  N     -810.486     771.095      39.884
  O     -807.856     774.838      44.047
  O     -806.641     774.840      41.783
  H     -811.801     769.746      43.838
  H     -807.273     774.062      44.189
  H     -810.709     767.987      36.014
  H     -808.879     772.534      40.178
  H     -812.381     771.111      40.726
  H     -810.336     769.742      42.156
  H     -812.843     767.233      36.604
  H     -809.175     771.807      42.709
  H     -813.553     767.752      38.094
  H     -811.980     772.988      43.240
  H     -811.024     775.103      42.769
  H     -809.905     774.342      43.924
  P     -808.917     770.904      45.162
  C     -810.036     768.612      45.670
  O     -809.018     769.308      44.979
  O     -809.163     771.142      46.723
  O     -807.655     771.545      44.668
  H     -808.321     771.208      47.182
  H     -810.957     769.197      45.729
  H     -809.690     768.375      46.683
  H     -810.245     767.671      45.141
  H     -808.280     778.509      41.437
  H     -808.531     777.072      40.476
  H     -806.940     777.442      41.095

 3  4  5  6  7  8  9  10  11  12  23  26  30  31  33  0
 6-311+G(2d,p)
 ****
 35  36  37  38 0
 6-311+G(2d,p)
 ****
 1  2  13  14  15  16  17  18  19  20  21  22  24  25  27  28  29 0
 3-21G
 ****
 32  34  39  40  41  42  43  44  45  46  47  48  49 0
 3-21G
 ****


