%nproc=1
%NoSave
%Mem=1900MB
#P OB98/GEN NMR

erre ene a

0 1
  C      191.779      40.542      26.044
  O      192.233      39.510      26.895
  H      191.056      41.153      26.589
  H      191.286      40.111      25.169
  H      192.612      41.174      25.730
  P      193.377      38.543      26.317
  C      195.465      39.664      27.371
  O      194.707      39.439      26.192
  C      196.958      39.511      27.092
  O      197.347      40.476      26.068
  C      197.858      39.751      28.313
  O      198.983      38.867      28.217
  C      198.355      41.171      28.095
  O      199.558      41.449      28.806
  C      198.500      41.175      26.574
  N      201.674      44.973      25.670
  C      201.908      43.711      26.180
  N      203.186      43.410      26.498
  N      200.971      42.818      26.359
  C      199.744      43.243      25.967
  C      199.381      44.464      25.453
  C      200.425      45.453      25.285
  O      200.277      46.594      24.857
  N      198.031      44.514      25.207
  C      197.584      43.324      25.566
  N      198.586      42.519      26.035
  O      192.920      38.332      24.798
  O      193.545      37.248      27.037
  H      199.402      41.246      29.751
  H      192.382      37.523      24.717
  H      202.430      45.627      25.564
  H      196.553      43.000      25.513
  H      199.399      40.642      26.240
  H      197.592      41.893      28.417
  H      203.966      44.029      26.343
  H      197.359      39.613      29.278
  H      203.384      42.473      26.833
  H      197.133      38.515      26.668
  H      195.165      38.932      28.129
  H      195.257      40.671      27.747
  P      198.800      37.359      28.725
  C      199.439      36.268      26.452
  O      198.450      36.446      27.456
  O      197.405      37.416      29.514
  O      199.905      36.866      29.597
  H      197.389      36.735      30.208
  H      199.053      35.637      25.679
  H      200.307      35.814      26.883
  H      199.702      37.219      26.038

 6  7  8  9  10  11  12  13  14  15  26  29  33  34 0
 6-311+G(2d,p)
 ****
 36  38  39  40  41 0
 6-311+G(2d,p)
 ****
 1  2  3  4  5  16  17  18  19  20  21  22  23  24  25 0
 3-21G
 ****
 27  28  30  31  32  35  37  42  43  44  45  46  47 0
 3-21G
 ****
 48  49 0
 3-21G
 ****


