%nproc=1
%NoSave
%Mem=1900MB
#P OB98/GEN NMR

erre ene a

0 1
  C        6.385     -83.559     178.647
  O        5.966     -84.581     179.559
  P        7.113     -85.435     180.287
  C        7.276     -87.443     178.612
  O        7.851     -86.247     179.118
  C        8.238     -88.110     177.631
  O        9.505     -88.398     178.273
  C        7.747     -89.444     177.088
  O        6.724     -89.265     176.123
  C        9.045     -90.029     176.545
  O        9.344     -89.473     175.254
  C       10.076     -89.536     177.582
  N       10.489     -90.575     178.517
  C       11.019     -91.728     177.945
  O       11.117     -91.892     176.729
  N       11.413     -92.701     178.821
  C       11.305     -92.647     180.181
  O       11.686     -93.548     180.918
  C       10.693     -91.424     180.723
  C       10.317     -90.458     179.882
  O        6.242     -86.536     181.048
  O        7.991     -84.604     181.160
  H        5.452     -86.809     180.549
  H        9.298     -88.502     175.356
  H       11.811     -93.540     178.429
  H       10.569     -91.358     181.796
  H        9.862     -89.551     180.262
  H       10.974     -89.162     177.073
  H        8.998     -91.118     176.431
  H        7.375     -90.067     177.911
  H        8.422     -87.409     176.803
  H        6.338     -87.216     178.097
  H        7.044     -88.105     179.449
  P        5.209     -89.453     176.628
  C        4.648     -91.822     175.673
  O        4.979     -91.030     176.793
  O        4.393     -89.076     175.305
  O        4.867     -88.623     177.820
  H        4.766     -89.475     174.500
  H        4.875     -92.866     175.901
  H        5.219     -91.525     174.790
  H        3.579     -91.731     175.462
  H        5.525     -83.072     178.237
  H        6.957     -83.999     177.857
  H        6.987     -82.842     179.166

 3  4  5  6  7  8  9  10  11  12  13  24  28  29  30  31  32 0
 6-311+G(2d,p)
 ****
 33  34 0
 6-311+G(2d,p)
 ****
 1  2  14  15  16  17  18  19  20  21  22  23  25  26  27 0
 3-21G
 ****
 35  36  37  38  39  40  41  42  43  44  45 0
 3-21G
 ****


