%nproc=1
%NoSave
%Mem=1900MB
#P OB98/GEN NMR

erre ene a

0 1
  C      997.465    -892.130     819.325
  O      996.953    -893.070     820.253
  H      996.964    -892.280     818.371
  H      998.543    -892.290     819.183
  H      997.278    -891.110     819.669
  P      997.404    -892.980     821.787
  C      995.114    -892.380     822.803
  O      996.120    -893.360     822.679
  C      994.095    -892.780     823.875
  O      993.195    -893.800     823.361
  C      994.741    -893.420     825.108
  O      995.345    -892.440     825.941
  C      993.536    -894.130     825.720
  O      992.741    -893.230     826.494
  C      992.763    -894.610     824.449
  N      992.989    -896.050     824.199
  C      991.906    -896.750     823.744
  O      990.789    -896.270     823.539
  N      992.108    -898.100     823.557
  C      993.259    -898.790     823.922
  O      993.314    -900.000     823.966
  C      994.399    -897.940     824.320
  C      994.207    -896.650     824.447
  O      998.087    -891.710     822.181
  O      998.358    -894.250     821.990
  H      999.285    -893.950     821.961
  H      993.356    -892.650     826.976
  H      991.312    -898.640     823.277
  H      995.317    -898.440     824.555
  H      995.044    -895.990     824.799
  H      991.677    -894.440     824.592
  H      993.837    -894.950     826.384
  H      995.485    -894.170     824.793
  H      993.496    -891.910     824.166
  H      994.594    -892.270     821.835
  H      995.565    -891.410     823.049
  P      996.499    -892.900     826.986
  C      998.435    -892.980     825.305
  O      997.896    -892.330     826.470
  O      996.488    -894.330     827.366
  O      996.191    -891.950     828.269
  H      996.161    -892.520     829.060
  H      999.368    -892.526     825.042
  H      997.748    -892.880     824.491
  H      998.590    -894.018     825.515

 6  7  8  9  10  11  12  13  14  15  16  27  31  32  33  34  35 0
 6-311+G(2d,p)
 ****
 36  37 0
 6-311+G(2d,p)
 ****
 1  2  3  4  5  17  18  19  20  21  22  23  24  25 0
 3-21G
 ****
 26  28  29  30  38  39  40  41  42  43  44  45 0
 3-21G
 ****


