%nproc=1
%NoSave
%Mem=1900MB
#P OB98/GEN NMR

erre ene a

0 1
  C     -231.798    -164.265     772.460
  O     -230.657    -163.995     771.674
  P     -230.680    -164.225     770.081
  C     -228.178    -163.606     769.858
  O     -229.166    -164.626     769.694
  C     -226.802    -164.224     770.036
  O     -226.687    -164.894     771.313
  C     -226.434    -165.274     768.985
  O     -226.071    -164.657     767.765
  C     -225.314    -166.016     769.685
  O     -224.055    -165.328     769.524
  C     -225.752    -165.985     771.166
  N     -226.329    -167.253     771.604
  C     -225.626    -167.932     772.592
  O     -224.549    -167.488     773.033
  N     -226.096    -169.160     773.037
  C     -227.194    -169.643     772.518
  N     -227.613    -170.847     772.999
  C     -227.948    -168.973     771.442
  C     -227.466    -167.792     771.028
  O     -231.280    -163.116     769.285
  O     -231.465    -165.616     769.932
  H     -223.965    -165.132     768.572
  H     -232.436    -165.507     770.089
  H     -228.832    -169.422     771.013
  H     -227.960    -167.221     770.242
  H     -224.903    -165.750     771.826
  H     -225.162    -167.034     769.294
  H     -227.291    -165.955     768.842
  H     -226.051    -163.409     770.026
  H     -227.038    -171.290     773.702
  H     -228.437    -163.028     770.758
  H     -228.417    -171.335     772.608
  H     -228.206    -162.933     768.988
  P     -226.088    -165.517     766.414
  C     -224.716    -163.706     765.186
  O     -224.812    -165.081     765.536
  O     -227.388    -165.528     765.663
  O     -225.712    -167.010     766.887
  H     -226.298    -167.638     766.455
  H     -223.685    -163.487     764.921
  H     -225.002    -163.076     766.028
  H     -225.369    -163.500     764.341
  H     -231.583    -164.050     773.486
  H     -232.064    -165.296     772.360
  H     -232.611    -163.653     772.130

 3  4  5  6  7  8  9  10  11  12  13  23  27  28  29  30  32 0
 6-311+G(2d,p)
 ****
 34  35 0
 6-311+G(2d,p)
 ****
 1  2  14  15  16  17  18  19  20  21  22  24  25  26 0
 3-21G
 ****
 31  33  36  37  38  39  40  41  42  43  44  45  46 0
 3-21G
 ****


