%nproc=1
%NoSave
%Mem=1900MB
#P OB98/GEN NMR

erre ene a

0 1
  C      174.116       9.312    -230.109
  O      174.423      10.651    -229.781
  H      173.600       9.295    -231.072
  H      173.462       8.875    -229.350
  H      175.036       8.725    -230.189
  P      175.087      10.902    -228.340
  C      177.267      11.474    -229.653
  O      176.660      10.719    -228.615
  C      178.610      12.022    -229.182
  O      178.434      12.889    -228.039
  C      179.606      10.958    -228.731
  O      180.237      10.285    -229.806
  C      180.582      11.827    -227.957
  O      181.399      12.573    -228.877
  C      179.610      12.751    -227.194
  N      179.237      12.229    -225.876
  C      179.758      12.904    -224.765
  O      180.489      13.880    -224.909
  N      179.464      12.431    -223.509
  C      178.702      11.392    -223.370
  N      178.448      10.970    -222.102
  C      178.122      10.660    -224.509
  C      178.427      11.127    -225.719
  O      174.718       9.575    -227.526
  O      174.712      12.173    -227.656
  H      182.005      13.112    -228.337
  H      175.206       9.559    -226.666
  H      177.501       9.790    -224.345
  H      178.036      10.641    -226.606
  H      180.038      13.752    -227.065
  H      181.260      11.256    -227.323
  H      179.144      10.243    -228.040
  H      179.023      12.634    -229.995
  H      178.908      11.456    -221.343
  H      176.595      12.298    -229.916
  H      177.994      10.090    -221.896
  H      177.421      10.845    -230.534
  P      181.038       8.937    -229.461
  C      179.095       7.298    -230.022
  O      179.948       7.846    -229.026
  O      181.776       9.291    -228.089
  O      182.002       8.491    -230.517
  H      182.645       8.850    -228.035
  H      178.430       6.590    -229.572
  H      179.686       6.808    -230.768
  H      178.527       8.083    -230.476

 6  7  8  9  10  11  12  13  14  15  16  26  30  31  32  33  35 0
 6-311+G(2d,p)
 ****
 37  38 0
 6-311+G(2d,p)
 ****
 1  2  3  4  5  17  18  19  20  21  22  23  24  25 0
 3-21G
 ****
 27  28  29  34  36  39  40  41  42  43  44  45  46 0
 3-21G
 ****


