%nproc=1
%NoSave
%Mem=1900MB
#P OB98/GEN NMR

erre ene a

0 1
  C      159.336      59.576     -20.119
  O      160.149      58.492     -20.578
  P      160.895      57.622     -19.448
  C      163.188      58.766     -19.902
  O      162.448      57.554     -19.845
  C      164.566      58.530     -20.517
  O      165.370      57.683     -19.677
  C      164.534      57.832     -21.869
  O      164.225      58.735     -22.920
  C      165.973      57.346     -21.984
  O      166.813      58.411     -22.462
  C      166.321      56.998     -20.528
  N      168.957      52.686     -20.140
  C      169.385      53.960     -20.457
  N      170.710      54.111     -20.674
  N      168.590      54.992     -20.551
  C      167.296      54.698     -20.277
  C      166.748      53.480     -19.953
  C      167.636      52.338     -19.883
  O      167.304      51.183     -19.639
  N      165.398      53.576     -19.736
  C      165.132      54.856     -19.900
  N      166.250      55.577     -20.244
  O      160.375      56.136     -19.740
  O      160.597      58.057     -18.053
  H      167.736      58.094     -22.406
  H      160.400      55.607     -18.920
  H      169.612      51.926     -20.088
  H      164.157      55.310     -19.779
  H      167.320      57.354     -20.251
  H      166.083      56.515     -22.687
  H      171.388      53.376     -20.549
  H      163.852      56.973     -21.852
  H      171.047      55.046     -20.873
  H      165.067      59.503     -20.611
  H      163.306      59.176     -18.897
  H      162.621      59.501     -20.481
  P      162.672      58.997     -23.228
  C      162.558      57.609     -25.416
  O      162.526      58.889     -24.819
  O      162.499      60.558     -22.926
  O      161.733      58.163     -22.423
  H      161.586      60.748     -22.641
  H      161.962      56.891     -24.846
  H      163.592      57.258     -25.482
  H      162.145      57.682     -26.426
  H      158.897      60.073     -20.959
  H      159.940      60.268     -19.570
  H      158.562      59.198     -19.484

 3  4  5  6  7  8  9  10  11  12  23  26  30  31  33  0
 6-311+G(2d,p)
 ****
 35  36  37  38 0
 6-311+G(2d,p)
 ****
 1  2  13  14  15  16  17  18  19  20  21  22  24  25  27  28  29 0
 3-21G
 ****
 32  34  39  40  41  42  43  44  45  46  47  48  49 0
 3-21G
 ****


