%nproc=1
%NoSave
%Mem=1900MB
#P OB98/GEN NMR

erre ene a

0 1
  C     -374.797     142.291     158.693
  O     -375.007     142.550     157.321
  H     -374.084     141.467     158.790
  H     -375.741     141.994     159.161
  H     -374.393     143.167     159.206
  P     -375.718     143.919     156.891
  C     -374.483     144.263     154.649
  O     -375.719     143.973     155.287
  C     -374.652     144.336     153.125
  O     -374.999     143.026     152.613
  C     -375.806     145.281     152.758
  O     -375.618     145.886     151.482
  C     -376.999     144.341     152.689
  O     -378.074     144.858     151.907
  C     -376.347     143.080     152.110
  N     -380.474     140.177     151.385
  C     -380.213     141.448     150.921
  N     -381.181     142.036     150.182
  N     -379.101     142.098     151.170
  C     -378.252     141.418     151.984
  C     -378.415     140.164     152.528
  C     -379.629     139.443     152.211
  O     -379.925     138.321     152.613
  N     -377.345     139.819     153.319
  C     -376.544     140.861     153.261
  N     -377.042     141.856     152.449
  O     -374.639     145.043     157.272
  O     -377.044     144.193     157.532
  H     -378.806     144.212     151.954
  H     -375.076     145.898     157.427
  H     -381.338     139.716     151.150
  H     -375.591     140.949     153.779
  H     -376.301     143.144     151.016
  H     -377.381     144.196     153.707
  H     -382.109     141.654     150.112
  H     -375.947     146.060     153.505
  H     -381.133     143.053     150.085
  H     -373.702     144.623     152.653
  H     -373.784     143.458     154.911
  H     -374.066     145.196     155.036
  P     -374.754     147.236     151.423
  C     -373.476     146.632     149.210
  O     -374.359     147.505     149.892
  O     -373.368     146.822     152.119
  O     -375.399     148.397     152.103
  H     -373.317     147.206     153.016
  H     -373.337     146.977     148.207
  H     -373.891     145.646     149.194
  H     -372.533     146.614     149.714

 6  7  8  9  10  11  12  13  14  15  26  29  33  34 0
 6-311+G(2d,p)
 ****
 36  38  39  40  41 0
 6-311+G(2d,p)
 ****
 1  2  3  4  5  16  17  18  19  20  21  22  23  24  25 0
 3-21G
 ****
 27  28  30  31  32  35  37  42  43  44  45  46  47 0
 3-21G
 ****
 48  49 0
 3-21G
 ****


