%nproc=1
%NoSave
%Mem=1900MB
#P OB98/GEN NMR

erre ene a

0 1
  C     -114.045      13.332     -15.036
  O     -113.504      14.582     -15.428
  P     -112.060      14.589     -16.135
  C     -111.019      15.558     -13.952
  O     -110.969      14.559     -14.958
  C     -109.772      15.488     -13.065
  O     -109.596      14.117     -12.625
  C     -108.468      15.915     -13.750
  O     -107.642      16.510     -12.742
  C     -107.865      14.595     -14.191
  O     -106.462      14.678     -14.413
  C     -108.275      13.695     -13.031
  N     -106.584       9.056     -11.917
  C     -106.260      10.277     -11.352
  N     -105.409      10.243     -10.304
  N     -106.727      11.423     -11.773
  C     -107.579      11.296     -12.819
  C     -107.950      10.151     -13.488
  C     -107.454       8.889     -12.988
  O     -107.783       7.780     -13.402
  N     -108.762      10.434     -14.556
  C     -108.947      11.736     -14.479
  N     -108.291      12.297     -13.418
  O     -111.953      16.076     -16.711
  O     -111.850      13.546     -17.190
  H     -106.042      14.973     -13.578
  H     -112.250      16.115     -17.642
  H     -106.207       8.205     -11.537
  H     -109.550      12.324     -15.158
  H     -107.604      13.793     -12.166
  H     -108.334      14.268     -15.129
  H     -105.034       9.395      -9.906
  H     -108.619      16.612     -14.582
  H     -105.180      11.120      -9.849
  H     -109.953      16.098     -12.170
  H     -111.903      15.389     -13.327
  H     -111.109      16.545     -14.420
  P     -107.000      17.947     -13.049
  C     -104.892      16.802     -14.027
  O     -105.918      17.755     -14.214
  O     -106.099      18.219     -11.752
  O     -107.993      19.048     -13.248
  H     -106.071      19.177     -11.566
  H     -104.506      16.506     -15.008
  H     -105.258      15.910     -13.509
  H     -104.080      17.251     -13.449
  H     -115.002      13.484     -14.583
  H     -113.388      12.864     -14.333
  H     -114.153      12.705     -15.896

 3  4  5  6  7  8  9  10  11  12  23  26  30  31 0
 6-311+G(2d,p)
 ****
 33  35  36  37  38 0
 6-311+G(2d,p)
 ****
 1  2  13  14  15  16  17  18  19  20  21  22  24  25 0
 3-21G
 ****
 27  28  29  32  34  39  40  41  42  43  44  45  46  47  48  49 0
 3-21G
 ****


