%nproc=1
%NoSave
%Mem=1900MB
#P OB98/GEN NMR

erre ene a

0 1
  C      -26.740    -583.092    -811.541
  O      -25.384    -583.197    -811.893
  P      -24.335    -583.970    -810.952
  C      -22.342    -582.348    -810.639
  O      -22.884    -583.449    -811.388
  C      -20.807    -582.438    -810.604
  O      -20.377    -583.460    -809.707
  C      -20.171    -582.750    -811.951
  O      -20.173    -581.607    -812.798
  C      -18.786    -583.225    -811.521
  O      -17.911    -582.113    -811.277
  C      -19.113    -583.968    -810.190
  N      -19.127    -585.402    -810.360
  C      -17.870    -586.042    -810.405
  O      -16.837    -585.361    -810.332
  N      -17.806    -587.416    -810.558
  C      -18.914    -588.077    -810.697
  N      -18.809    -589.433    -810.858
  C      -20.264    -587.465    -810.683
  C      -20.285    -586.136    -810.523
  O      -24.492    -585.457    -810.896
  O      -24.542    -583.258    -809.519
  H      -17.014    -582.510    -811.130
  H      -25.398    -583.556    -809.095
  H      -21.151    -588.054    -810.803
  H      -21.244    -585.587    -810.493
  H      -18.353    -583.713    -809.417
  H      -18.329    -583.871    -812.276
  H      -20.720    -583.577    -812.428
  H      -20.437    -581.460    -810.229
  H      -17.865    -589.807    -810.896
  H      -22.728    -582.430    -809.629
  H      -19.597    -590.048    -811.009
  H      -22.693    -581.418    -811.082
  P      -21.104    -581.581    -814.101
  C      -19.275    -580.850    -815.759
  O      -20.498    -580.489    -815.105
  O      -22.567    -581.435    -813.836
  O      -20.786    -582.973    -814.837
  H      -21.611    -583.368    -815.132
  H      -19.142    -580.192    -816.628
  H      -19.288    -581.890    -816.074
  H      -18.429    -580.680    -815.060
  H      -27.263    -582.543    -812.296
  H      -26.827    -582.581    -810.605
  H      -27.163    -584.071    -811.454

 3  4  5  6  7  8  9  10  11  12  13  23  27  28  29  30  32 0
 6-311+G(2d,p)
 ****
 34  35 0
 6-311+G(2d,p)
 ****
 1  2  14  15  16  17  18  19  20  21  22  24  25  26 0
 3-21G
 ****
 31  33  36  37  38  39  40  41  42  43  44  45  46 0
 3-21G
 ****


