%nproc=1
%NoSave
%Mem=1900MB
#P OB98/GEN NMR

erre ene a

0 1
  C       56.729     350.673     -25.991
  O       56.686     352.043     -25.649
  H       55.717     350.261     -26.026
  H       57.184     350.570     -26.980
  H       57.331     350.119     -25.263
  P       56.016     352.416     -24.240
  C       53.504     352.687     -23.619
  O       54.477     351.984     -24.379
  C       52.434     351.710     -23.142
  O       53.054     350.559     -22.523
  C       51.495     352.291     -22.091
  O       50.454     353.066     -22.659
  C       50.955     351.019     -21.461
  O       49.964     350.432     -22.323
  C       52.212     350.139     -21.415
  N       52.420     348.785     -16.481
  C       51.571     348.443     -17.475
  N       51.596     348.831     -18.767
  C       52.636     349.645     -18.997
  C       53.589     350.076     -18.087
  C       53.451     349.613     -16.768
  N       54.296     349.982     -15.745
  N       54.492     350.926     -18.694
  C       54.101     350.993     -19.951
  N       52.963     350.262     -20.177
  O       55.943     354.015     -24.262
  O       56.702     351.880     -23.028
  H       49.750     349.553     -21.956
  H       55.760     354.360     -23.368
  H       50.763     347.775     -17.194
  H       54.595     351.559     -20.729
  H       51.987     349.074     -21.552
  H       50.473     351.197     -20.495
  H       52.045     352.859     -21.331
  H       51.874     351.356     -24.017
  H       53.044     353.456     -24.249
  H       54.029     349.718     -14.809
  H       54.974     350.709     -15.915
  H       53.988     353.165     -22.762
  P       49.590     353.988     -21.667
  C       47.585     353.571     -20.067
  O       48.620     352.998     -20.857
  O       48.593     354.747     -22.661
  O       50.395     354.935     -20.838
  H       48.383     355.640     -22.328
  H       47.027     352.792     -19.591
  H       46.934     354.145     -20.693
  H       48.016     354.207     -19.322

 6  7  8  9  10  11  12  13  14  15  25  28  32  33  34  35 0
 6-311+G(2d,p)
 ****
 36  39  40 0
 6-311+G(2d,p)
 ****
 1  2  3  4  5  16  17  18  19  20  21  22  23  24 0
 3-21G
 ****
 26  27  29  30  31  37  38  41  42  43  44  45  46  47 0
 3-21G
 ****
 48 0
 3-21G
 ****


