%nproc=1
%NoSave
%Mem=1900MB
#P OB98/GEN NMR

erre ene a

0 1
  C      148.897     297.980    -244.242
  O      148.293     297.593    -243.026
  H      149.899     298.363    -244.027
  H      148.317     298.771    -244.724
  H      148.990     297.123    -244.915
  P      146.783     297.056    -243.054
  C      145.904     299.476    -243.230
  O      145.858     298.247    -242.508
  C      144.768     300.401    -242.767
  O      143.513     299.792    -243.151
  C      144.762     300.605    -241.242
  O      144.758     301.977    -240.857
  C      143.595     299.739    -240.780
  O      142.995     300.151    -239.568
  C      142.657     299.744    -241.995
  N      141.762     298.591    -242.058
  C      140.706     298.549    -241.150
  O      140.453     299.421    -240.317
  N      139.901     297.443    -241.229
  C      140.048     296.404    -242.101
  O      139.288     295.438    -242.124
  C      141.192     296.492    -243.016
  C      141.985     297.562    -242.956
  O      146.554     295.736    -242.395
  O      146.419     297.003    -244.614
  H      142.769     301.100    -239.658
  H      146.464     296.080    -244.930
  H      139.126     297.408    -240.585
  H      141.345     295.678    -243.713
  H      142.840     297.665    -243.618
  H      142.038     300.644    -241.995
  H      143.967     298.713    -240.624
  H      145.686     300.218    -240.795
  H      144.853     301.355    -243.302
  H      145.793     299.243    -244.296
  H      146.869     299.964    -243.069
  P      146.067     302.840    -240.553
  C      145.985     302.650    -237.938
  O      145.916     303.475    -239.093
  O      146.506     303.750    -241.648
  O      147.211     301.716    -240.362
  H      148.047     302.110    -240.689
  H      145.863     303.252    -237.062
  H      146.936     302.161    -237.905
  H      145.208     301.916    -237.977

 6  7  8  9  10  11  12  13  14  15  16  26  31  32  33  34  35 0
 6-311+G(2d,p)
 ****
 36  37 0
 6-311+G(2d,p)
 ****
 1  2  3  4  5  17  18  19  20  21  22  23  24  25 0
 3-21G
 ****
 27  28  29  30  38  39  40  41  42  43  44  45 0
 3-21G
 ****


