%nproc=1
%NoSave
%Mem=1900MB
#P OB98/GEN NMR

erre ene a

0 1
  C      420.644      38.817     277.939
  O      419.313      38.738     277.459
  H      420.702      39.621     278.678
  H      421.331      39.042     277.118
  H      420.922      37.875     278.419
  P      419.024      37.636     276.331
  C      418.348      38.563     274.003
  O      419.394      38.370     274.948
  C      418.142      40.050     273.728
  O      419.402      40.687     273.452
  C      417.247      40.348     272.529
  O      415.878      40.291     272.911
  C      417.672      41.775     272.196
  O      417.002      42.696     273.083
  C      419.180      41.756     272.499
  N      422.251      44.006     269.047
  C      421.396      44.526     269.962
  N      420.570      43.867     270.808
  C      420.692      42.534     270.653
  C      421.517      41.871     269.763
  C      422.330      42.662     268.934
  N      423.196      42.135     267.998
  N      421.371      40.501     269.887
  C      420.517      40.349     270.878
  N      420.046      41.550     271.354
  O      417.683      36.984     276.390
  O      420.269      36.647     276.539
  H      416.059      42.443     273.090
  H      421.082      37.156     276.709
  H      421.368      45.609     270.015
  H      420.220      39.395     271.307
  H      419.506      42.689     272.970
  H      417.406      42.063     271.175
  H      417.472      39.699     271.678
  H      417.741      40.509     274.641
  H      417.414      38.120     274.380
  H      423.592      42.770     267.322
  H      423.157      41.140     267.832
  H      418.631      38.037     273.084
  P      414.717      40.161     271.806
  C      413.397      42.302     271.280
  O      414.627      41.610     271.123
  O      413.435      39.608     272.323
  O      415.367      39.259     270.657
  H      414.666      38.906     270.071
  H      413.455      43.249     270.786
  H      413.204      42.454     272.321
  H      412.605      41.724     270.851

 6  7  8  9  10  11  12  13  14  15  25  28  32  33  34  35 0
 6-311+G(2d,p)
 ****
 36  39  40 0
 6-311+G(2d,p)
 ****
 1  2  3  4  5  16  17  18  19  20  21  22  23  24 0
 3-21G
 ****
 26  27  29  30  31  37  38  41  42  43  44  45  46  47 0
 3-21G
 ****
 48 0
 3-21G
 ****


