%nproc=1
%NoSave
%Mem=1900MB
#P OB98/GEN NMR

erre ene a

0 1
  C     -142.380    -782.888     837.486
  O     -141.233    -783.620     837.872
  H     -143.080    -782.867     838.328
  H     -142.871    -783.367     836.638
  H     -142.110    -781.861     837.232
  P     -140.076    -783.857     836.792
  C     -138.628    -782.315     838.271
  O     -139.038    -782.644     836.947
  C     -137.137    -781.975     838.292
  O     -136.399    -783.199     838.058
  C     -136.750    -780.963     837.198
  O     -136.042    -779.835     837.701
  C     -136.046    -781.828     836.153
  O     -135.107    -781.134     835.357
  C     -135.453    -782.969     836.991
  N     -135.221    -784.200     836.232
  C     -133.938    -784.409     835.746
  O     -132.979    -783.659     835.927
  N     -133.761    -785.571     835.025
  C     -134.722    -786.494     834.752
  O     -134.501    -787.511     834.098
  C     -136.063    -786.200     835.276
  C     -136.250    -785.084     835.978
  O     -140.537    -784.113     835.396
  O     -139.254    -785.109     837.374
  H     -134.628    -781.802     834.815
  H     -139.500    -785.917     836.886
  H     -132.830    -785.738     834.676
  H     -136.849    -786.906     835.065
  H     -137.231    -784.833     836.375
  H     -134.509    -782.670     837.436
  H     -136.809    -782.232     835.480
  H     -137.641    -780.517     836.747
  H     -136.868    -781.610     839.291
  H     -138.826    -783.186     838.907
  H     -139.212    -781.463     838.631
  P     -136.453    -778.318     837.445
  C     -137.399    -778.230     839.893
  O     -137.574    -777.909     838.516
  O     -136.713    -777.947     836.026
  O     -135.143    -777.490     837.938
  H     -135.091    -776.698     837.361
  H     -138.243    -777.881     840.451
  H     -136.510    -777.760     840.259
  H     -137.313    -779.291     840.004

 6  7  8  9  10  11  12  13  14  15  16  26  31  32  33  34  35 0
 6-311+G(2d,p)
 ****
 36  37 0
 6-311+G(2d,p)
 ****
 1  2  3  4  5  17  18  19  20  21  22  23  24  25 0
 3-21G
 ****
 27  28  29  30  38  39  40  41  42  43  44  45 0
 3-21G
 ****


