%nproc=1
%NoSave
%Mem=1900MB
#P OB98/GEN NMR

erre ene a

0 1
  C       63.414    -179.783     -57.704
  O       63.268    -180.270     -59.026
  P       64.448    -179.993     -60.072
  C       63.679    -177.567     -60.586
  O       63.944    -178.867     -61.099
  C       63.444    -176.568     -61.723
  O       63.060    -175.284     -61.173
  C       64.683    -176.336     -62.599
  O       64.270    -176.093     -63.954
  C       65.254    -175.042     -62.061
  O       66.060    -174.379     -63.040
  C       63.974    -174.296     -61.692
  N       66.412    -169.962     -60.772
  C       66.200    -170.614     -61.971
  N       66.793    -170.071     -63.061
  N       65.466    -171.683     -62.093
  C       64.944    -172.114     -60.920
  C       65.071    -171.546     -59.667
  C       65.897    -170.367     -59.548
  O       66.145    -169.762     -58.509
  N       64.361    -172.250     -58.728
  C       63.844    -173.267     -59.393
  N       64.197    -173.245     -60.716
  O       64.462    -181.328     -60.959
  O       65.782    -179.747     -59.454
  H       65.463    -174.141     -63.780
  H       65.229    -181.880     -60.715
  H       66.997    -169.140     -60.722
  H       63.230    -174.048     -58.960
  H       63.503    -173.840     -62.572
  H       65.878    -175.238     -61.180
  H       67.424    -169.281     -63.018
  H       65.413    -177.155     -62.579
  H       66.690    -170.552     -63.940
  H       62.601    -176.925     -62.329
  H       64.536    -177.236     -59.993
  H       62.801    -177.605     -59.931
  P       64.877    -177.091     -65.062
  C       67.416    -176.712     -64.616
  O       66.304    -176.479     -65.459
  O       63.965    -176.803     -66.348
  O       64.864    -178.526     -64.662
  H       63.958    -177.585     -66.937
  H       68.163    -177.293     -65.164
  H       67.140    -177.257     -63.705
  H       67.854    -175.751     -64.336
  H       62.550    -180.046     -57.130
  H       63.518    -178.718     -57.726
  H       64.284    -180.217     -57.258

 3  4  5  6  7  8  9  10  11  12  23  26  30  31 0
 6-311+G(2d,p)
 ****
 33  35  36  37  38 0
 6-311+G(2d,p)
 ****
 1  2  13  14  15  16  17  18  19  20  21  22  24  25 0
 3-21G
 ****
 27  28  29  32  34  39  40  41  42  43  44  45  46  47  48  49 0
 3-21G
 ****


