%nproc=1
%NoSave
%Mem=1900MB
#P OB98/GEN NMR

erre ene a

0 1
  C      315.318    1139.518    1074.354
  O      315.435    1140.628    1073.453
  P      315.733    1140.297    1071.895
  C      318.248    1139.782    1072.510
  O      317.308    1140.520    1071.703
  C      319.501    1139.533    1071.692
  O      319.193    1138.713    1070.529
  C      320.184    1140.776    1071.143
  O      320.915    1141.479    1072.141
  C      321.062    1140.171    1070.018
  O      322.253    1139.620    1070.580
  C      320.130    1139.043    1069.496
  N      319.450    1139.404    1068.268
  C      320.230    1139.844    1067.195
  O      321.471    1139.932    1067.284
  N      319.568    1140.192    1066.043
  C      318.191    1140.180    1065.899
  O      317.666    1140.549    1064.855
  C      317.395    1139.741    1067.022
  C      318.053    1139.381    1068.168
  O      315.041    1141.594    1071.229
  O      315.152    1138.998    1071.468
  H      315.058    1142.375    1071.832
  H      322.691    1140.370    1071.050
  H      320.127    1140.476    1065.283
  H      316.319    1139.736    1066.948
  H      317.484    1139.059    1069.026
  H      320.733    1138.134    1069.297
  H      321.343    1140.928    1069.268
  H      319.433    1141.434    1070.703
  H      320.219    1138.974    1072.336
  H      317.800    1138.812    1072.779
  H      318.449    1140.344    1073.414
  P      320.186    1142.819    1072.739
  C      320.843    1144.229    1070.620
  O      320.888    1144.073    1072.023
  O      320.750    1142.824    1074.223
  O      318.703    1142.802    1072.653
  H      321.725    1142.592    1074.266
  H      321.025    1145.253    1070.349
  H      319.846    1143.940    1070.211
  H      321.612    1143.578    1070.152
  H      315.123    1139.880    1075.342
  H      316.231    1138.960    1074.353
  H      314.513    1138.887    1074.040

 3  4  5  6  7  8  9  10  11  12  13  24  28  29  30  31  32 0
 6-311+G(2d,p)
 ****
 33  34 0
 6-311+G(2d,p)
 ****
 1  2  14  15  16  17  18  19  20  21  22  23  25  26  27 0
 3-21G
 ****
 35  36  37  38  39  40  41  42  43  44  45 0
 3-21G
 ****


