%nproc=1
%NoSave
%Mem=1900MB
#P OB98/GEN NMR

erre ene a

0 1
  C      248.773      57.338     -68.157
  O      247.502      57.898     -67.886
  H      248.713      56.255     -68.024
  H      249.528      57.735     -67.475
  H      249.060      57.547     -69.191
  P      247.394      59.493     -67.741
  C      247.789      59.339     -65.198
  O      248.260      59.862     -66.437
  C      247.971      60.350     -64.066
  O      247.478      59.815     -62.818
  C      249.421      60.715     -63.784
  O      250.060      61.431     -64.816
  C      249.325      61.332     -62.398
  O      248.926      62.701     -62.438
  C      248.207      60.472     -61.757
  N      248.729      59.515     -60.789
  C      248.173      59.570     -59.517
  O      247.307      60.381     -59.187
  N      248.670      58.675     -58.610
  C      249.678      57.783     -58.835
  O      250.094      57.020     -57.972
  C      250.255      57.799     -60.189
  C      249.761      58.649     -61.092
  O      246.002      60.049     -67.722
  O      248.294      60.049     -68.941
  H      249.074      63.067     -61.544
  H      248.112      61.006     -69.109
  H      248.268      58.689     -57.685
  H      251.065      57.114     -60.399
  H      250.168      58.676     -62.100
  H      247.484      61.117     -61.240
  H      250.275      61.286     -61.860
  H      249.992      59.785     -63.669
  H      247.377      61.238     -64.305
  H      248.371      58.438     -64.974
  H      246.734      59.065     -65.294
  P      251.549      61.141     -65.307
  C      252.521      63.195     -64.012
  O      252.568      61.794     -64.256
  O      251.823      61.332     -66.763
  O      251.697      59.565     -64.984
  H      252.271      59.184     -65.676
  H      253.265      63.456     -63.289
  H      251.553      63.460     -63.640
  H      252.709      63.722     -64.924

 6  7  8  9  10  11  12  13  14  15  16  26  31  32  33  34  35 0
 6-311+G(2d,p)
 ****
 36  37 0
 6-311+G(2d,p)
 ****
 1  2  3  4  5  17  18  19  20  21  22  23  24  25 0
 3-21G
 ****
 27  28  29  30  38  39  40  41  42  43  44  45 0
 3-21G
 ****


