%nproc=1
%NoSave
%Mem=1900MB
#P OB98/GEN NMR

erre ene a

0 1
  C     -961.436     261.309    -660.377
  O     -961.532     262.705    -660.195
  H     -960.553     260.943    -659.840
  H     -961.314     261.081    -661.442
  H     -962.324     260.806    -659.990
  P     -962.838     263.438    -660.766
  C     -961.735     263.685    -663.108
  O     -962.355     264.333    -662.009
  C     -961.330     264.702    -664.173
  O     -962.520     265.368    -664.671
  C     -960.372     265.784    -663.658
  O     -959.412     266.084    -664.687
  C     -961.278     266.989    -663.445
  O     -960.561     268.223    -663.520
  C     -962.329     266.786    -664.539
  N     -963.576     267.476    -664.217
  C     -964.268     268.036    -665.283
  O     -963.835     267.963    -666.435
  N     -965.421     268.742    -665.030
  C     -965.799     268.947    -663.797
  N     -966.930     269.673    -663.608
  C     -965.051     268.422    -662.633
  C     -963.968     267.694    -662.909
  O     -963.175     264.531    -659.638
  O     -963.996     262.544    -661.058
  H     -960.044     268.231    -664.347
  H     -964.137     264.688    -659.581
  H     -965.400     268.639    -661.624
  H     -963.350     267.290    -662.122
  H     -961.965     267.166    -665.498
  H     -961.731     266.924    -662.445
  H     -959.835     265.496    -662.749
  H     -960.887     264.166    -665.019
  H     -967.412     270.027    -664.427
  H     -962.447     262.977    -663.544
  H     -967.288     269.918    -662.697
  H     -960.860     263.131    -662.746
  P     -958.035     265.282    -664.635
  C     -957.055     267.548    -663.820
  O     -956.836     266.352    -664.563
  O     -957.897     264.661    -666.106
  O     -957.999     264.208    -663.589
  H     -958.059     263.703    -666.089
  H     -956.178     268.159    -663.861
  H     -957.270     267.301    -662.801
  H     -957.882     268.082    -664.240

 6  7  8  9  10  11  12  13  14  15  16  26  30  31  32  33  35 0
 6-311+G(2d,p)
 ****
 37  38 0
 6-311+G(2d,p)
 ****
 1  2  3  4  5  17  18  19  20  21  22  23  24  25 0
 3-21G
 ****
 27  28  29  34  36  39  40  41  42  43  44  45  46 0
 3-21G
 ****


