%nproc=1
%NoSave
%Mem=1900MB
#P OB98/GEN NMR

erre ene a

0 1
  C      881.253    -249.237     -60.434
  O      882.569    -249.771     -60.419
  H      880.700    -249.645     -59.585
  H      880.743    -249.511     -61.360
  H      881.295    -248.146     -60.337
  P      883.540    -249.320     -61.611
  C      885.549    -249.304     -59.996
  O      884.989    -249.870     -61.175
  C      886.310    -250.374     -59.197
  O      885.337    -251.218     -58.525
  C      887.187    -251.270     -60.079
  O      888.406    -251.559     -59.375
  C      886.370    -252.543     -60.226
  O      887.179    -253.683     -60.496
  C      885.624    -252.589     -58.891
  N      883.656    -257.295     -59.168
  C      884.916    -256.856     -58.939
  N      885.344    -255.579     -58.864
  C      884.325    -254.717     -59.010
  C      882.988    -255.017     -59.265
  C      882.675    -256.386     -59.353
  N      881.401    -256.843     -59.619
  N      882.246    -253.859     -59.400
  C      883.112    -252.868     -59.228
  N      884.380    -253.342     -59.002
  O      883.490    -247.877     -61.982
  O      883.121    -250.345     -62.770
  H      886.588    -254.455     -60.593
  H      883.018    -251.250     -62.435
  H      885.666    -257.624     -58.789
  H      882.877    -251.806     -59.265
  H      886.220    -253.050     -58.101
  H      885.660    -252.430     -61.063
  H      887.420    -250.813     -61.046
  H      886.901    -249.880     -58.414
  H      884.754    -248.883     -59.371
  H      881.254    -257.848     -59.646
  H      880.648    -256.180     -59.728
  H      886.226    -248.500     -60.293
  P      889.741    -251.820     -60.226
  C      890.834    -249.582     -59.528
  O      890.941    -251.009     -59.545
  O      889.607    -251.660     -61.710
  O      890.099    -253.340     -59.853
  H      890.453    -253.785     -60.647
  H      891.695    -249.165     -59.048
  H      889.953    -249.297     -58.991
  H      890.774    -249.217     -60.532

 6  7  8  9  10  11  12  13  14  15  25  28  32  33  34  35 0
 6-311+G(2d,p)
 ****
 36  39  40 0
 6-311+G(2d,p)
 ****
 1  2  3  4  5  16  17  18  19  20  21  22  23  24 0
 3-21G
 ****
 26  27  29  30  31  37  38  41  42  43  44  45  46  47 0
 3-21G
 ****
 48 0
 3-21G
 ****


