%nproc=1
%NoSave
%Mem=1900MB
#P OB98/GEN NMR

erre ene a

0 1
  C       52.896    -653.956     393.416
  O       53.791    -653.965     394.530
  P       53.191    -654.544     395.908
  C       54.246    -652.782     397.487
  O       54.205    -654.140     397.084
  C       55.570    -652.451     398.200
  O       55.867    -653.457     399.213
  C       56.777    -652.396     397.249
  O       57.656    -651.374     397.748
  C       57.394    -653.772     397.436
  O       58.728    -653.865     396.958
  C       57.205    -653.941     398.944
  N       59.642    -656.961     402.261
  C       59.700    -655.631     402.041
  N       59.023    -654.895     401.126
  C       58.202    -655.681     400.411
  C       58.031    -657.054     400.523
  C       58.798    -657.705     401.504
  N       58.765    -659.062     401.726
  N       57.115    -657.513     399.584
  C       56.795    -656.437     398.884
  N       57.365    -655.302     399.394
  O       53.374    -656.128     395.761
  O       51.766    -654.153     396.143
  H       58.755    -653.634     396.011
  H       52.533    -656.542     395.490
  H       60.395    -655.069     402.669
  H       56.169    -656.426     397.999
  H       57.906    -653.322     399.516
  H       56.800    -654.511     396.885
  H       56.517    -652.163     396.214
  H       55.455    -651.486     398.715
  H       53.416    -652.558     398.164
  H       59.353    -659.436     402.452
  H       58.152    -659.657     401.169
  H       54.106    -652.136     396.610
  P       57.619    -649.925     397.074
  C       60.156    -649.537     397.012
  O       58.932    -649.184     397.638
  O       56.472    -649.213     397.959
  O       57.377    -649.877     395.602
  H       56.633    -649.338     398.904
  H       60.951    -648.909     397.421
  H       60.093    -649.368     395.930
  H       60.391    -650.588     397.215
  H       53.396    -653.554     392.560
  H       52.044    -653.352     393.648
  H       52.578    -654.956     393.206

 3  4  5  6  7  8  9  10  11  12  22  25  29  30  31  32 0
 6-311+G(2d,p)
 ****
 33  36  37 0
 6-311+G(2d,p)
 ****
 1  2  13  14  15  16  17  18  19  20  21  23  24  26 0
 3-21G
 ****
 27  28  34  35  38  39  40  41  42  43  44  45  46  47  48 0
 3-21G
 ****


