%nproc=1
%NoSave
%Mem=1900MB
#P OB98/GEN NMR

erre ene a

0 1
  C      877.534    -120.252    -400.495
  O      877.829    -119.605    -401.725
  P      876.895    -119.971    -402.988
  C      878.250    -118.613    -404.755
  O      877.850    -119.902    -404.277
  C      879.386    -118.760    -405.769
  O      880.564    -119.269    -405.104
  C      879.095    -119.725    -406.897
  O      878.256    -119.127    -407.858
  C      880.497    -120.019    -407.422
  O      880.917    -119.042    -408.367
  C      881.356    -119.927    -406.124
  N      881.828    -121.225    -405.667
  C      883.040    -121.668    -406.230
  O      883.629    -120.975    -407.074
  N      883.526    -122.907    -405.847
  C      882.868    -123.617    -404.998
  N      883.400    -124.831    -404.654
  C      881.573    -123.203    -404.405
  C      881.119    -122.011    -404.777
  O      875.968    -118.665    -403.142
  O      876.088    -121.222    -402.837
  H      881.693    -119.409    -408.817
  H      875.122    -118.894    -403.556
  H      881.063    -123.841    -403.694
  H      880.183    -121.619    -404.400
  H      882.240    -119.289    -406.294
  H      880.557    -120.999    -407.909
  H      878.638    -120.644    -406.511
  H      879.621    -117.750    -406.155
  H      884.266    -125.102    -405.099
  H      878.585    -118.001    -403.914
  H      882.968    -125.456    -403.995
  H      877.385    -118.120    -405.206
  P      877.065    -120.018    -408.471
  C      877.223    -118.291    -410.367
  O      877.058    -119.653    -410.035
  O      875.759    -119.256    -407.947
  O      877.061    -121.467    -408.132
  H      874.960    -119.770    -408.171
  H      877.361    -118.201    -411.456
  H      878.109    -117.886    -409.876
  H      876.330    -117.722    -410.079
  H      878.223    -119.923    -399.745
  H      877.621    -121.311    -400.619
  H      876.536    -120.009    -400.194

 3  4  5  6  7  8  9  10  11  12  13  21  23  27  28  29  30  32 0
 6-311+G(2d,p)
 ****
 34  35 0
 6-311+G(2d,p)
 ****
 1  2  14  15  16  17  18  19  20  22  24  25  26 0
 3-21G
 ****
 31  33  36  37  38  39  40  41  42  43  44  45  46 0
 3-21G
 ****


