%nproc=1
%NoSave
%Mem=1900MB
#P OB98/GEN NMR

erre ene a

0 1
  C       54.868    -147.958      76.600
  O       55.822    -147.027      76.083
  P       57.279    -147.600      75.729
  C       58.512    -147.136      77.959
  O       57.964    -148.115      77.089
  C       58.937    -147.753      79.297
  O       59.495    -146.739      80.181
  C       57.788    -148.423      80.057
  O       58.330    -149.544      80.767
  C       57.379    -147.363      81.061
  O       56.646    -147.924      82.146
  C       58.746    -146.780      81.414
  N       59.850    -143.959      85.522
  C       60.080    -145.256      85.229
  N       59.731    -145.940      84.117
  C       59.120    -145.128      83.237
  C       58.809    -143.788      83.400
  C       59.201    -143.195      84.612
  N       58.945    -141.880      84.924
  N       58.135    -143.308      82.294
  C       58.039    -144.344      81.484
  N       58.645    -145.455      81.996
  O       58.111    -146.282      75.363
  O       57.286    -148.579      74.602
  H       57.204    -148.609      82.571
  H       58.274    -146.249      74.403
  H       60.608    -145.824      85.991
  H       57.539    -144.345      80.527
  H       59.295    -147.405      82.129
  H       56.748    -146.611      80.573
  H       56.954    -148.750      79.429
  H       59.727    -148.489      79.103
  H       57.777    -146.348      78.147
  H       59.233    -141.540      85.826
  H       58.421    -141.314      84.274
  H       59.355    -146.647      77.461
  P       57.739    -150.984      80.388
  C       56.156    -151.168      82.434
  O       56.274    -151.050      81.030
  O       58.596    -151.992      81.290
  O       57.829    -151.318      78.935
  H       58.622    -152.874      80.876
  H       55.332    -150.533      82.773
  H       57.070    -150.867      82.954
  H       55.930    -152.208      82.686
  H       53.945    -147.453      76.793
  H       55.240    -148.382      77.509
  H       54.705    -148.737      75.884

 3  4  5  6  7  8  9  10  11  12  22  25  29  30  31  32 0
 6-311+G(2d,p)
 ****
 33  36  37 0
 6-311+G(2d,p)
 ****
 1  2  13  14  15  16  17  18  19  20  21  23  24  26 0
 3-21G
 ****
 27  28  34  35  38  39  40  41  42  43  44  45  46  47  48 0
 3-21G
 ****


