%nproc=1
%NoSave
%Mem=1900MB
#P OB98/GEN NMR

erre ene a

0 1
  C     1010.764    -991.693     491.090
  O     1010.741    -990.444     490.411
  P     1009.833    -990.114     489.129
  C     1011.270    -991.489     487.403
  O     1010.013    -991.288     488.051
  C     1011.138    -992.520     486.273
  O     1010.335    -991.946     485.174
  C     1012.495    -992.920     485.667
  O     1012.593    -994.319     485.378
  C     1012.619    -991.962     484.482
  O     1013.562    -992.405     483.512
  C     1011.193    -991.825     484.004
  N     1010.908    -989.503     479.491
  C     1011.365    -990.758     479.773
  N     1011.794    -991.514     478.738
  N     1011.372    -991.280     480.979
  C     1010.978    -990.380     481.942
  C     1010.523    -989.080     481.761
  C     1010.445    -988.570     480.404
  O     1010.040    -987.474     480.099
  N     1010.199    -988.507     482.986
  C     1010.465    -989.421     483.867
  N     1010.907    -990.606     483.274
  O     1009.938    -988.718     488.632
  O     1008.314    -990.348     489.668
  H     1013.700    -991.674     482.879
  H     1007.775    -989.714     489.184
  H     1010.871    -989.165     478.515
  H     1010.328    -989.312     484.938
  H     1010.914    -992.653     483.324
  H     1012.984    -991.013     484.867
  H     1011.940    -991.144     477.822
  H     1013.318    -992.731     486.395
  H     1012.330    -992.342     478.980
  H     1010.583    -993.387     486.601
  H     1011.954    -991.889     488.174
  H     1011.675    -990.565     487.039
  P     1013.127    -995.493     486.357
  C     1015.600    -996.126     485.921
  O     1014.671    -995.267     486.632
  O     1013.091    -996.812     485.463
  O     1012.290    -995.665     487.603
  H     1012.474    -997.458     485.833
  H     1016.567    -996.060     486.386
  H     1015.655    -995.803     484.904
  H     1015.239    -997.144     485.980
  H     1011.454    -991.642     491.907
  H     1011.070    -992.462     490.412
  H     1009.786    -991.915     491.462

 3  4  5  6  7  8  9  10  11  12  23  26  30  31 0
 6-311+G(2d,p)
 ****
 33  35  36  37  38 0
 6-311+G(2d,p)
 ****
 1  2  13  14  15  16  17  18  19  20  21  22  24  25 0
 3-21G
 ****
 27  28  29  32  34  39  40  41  42  43  44  45  46  47  48  49 0
 3-21G
 ****


