%nproc=1
%NoSave
%Mem=1900MB
#P OB98/GEN NMR

erre ene a

0 1
  C      769.847     119.874     -55.797
  O      769.063     120.186     -54.662
  H      769.527     118.907     -56.188
  H      770.905     119.809     -55.523
  H      769.709     120.629     -56.579
  P      769.333     121.564     -53.895
  C      767.892     123.719     -53.692
  O      767.904     122.311     -53.906
  C      766.668     124.340     -54.344
  O      766.854     124.496     -55.774
  C      765.371     123.528     -54.208
  O      764.815     123.565     -52.911
  C      764.512     124.232     -55.244
  O      764.063     125.492     -54.713
  C      765.531     124.446     -56.392
  N      765.477     123.380     -57.400
  C      764.457     123.476     -58.357
  O      763.648     124.416     -58.322
  N      764.344     122.491     -59.303
  C      765.168     121.485     -59.283
  N      764.997     120.537     -60.250
  C      766.233     121.332     -58.289
  C      766.345     122.296     -57.382
  O      770.481     122.381     -54.389
  O      769.464     121.145     -52.346
  H      763.569     125.943     -55.432
  H      769.642     121.970     -51.828
  H      766.883     120.457     -58.302
  H      767.101     122.263     -56.613
  H      765.369     125.412     -56.879
  H      763.636     123.668     -55.516
  H      765.537     122.490     -54.537
  H      766.542     125.348     -53.922
  H      764.249     120.667     -60.920
  H      768.819     124.136     -54.104
  H      765.548     119.679     -60.260
  H      767.856     123.926     -52.618
  P      763.754     122.411     -52.544
  C      762.796     121.587     -50.259
  O      763.870     122.176     -50.960
  O      764.408     121.095     -53.181
  O      762.359     122.650     -53.027
  H      764.007     120.891     -54.048
  H      763.047     121.509     -49.222
  H      762.604     120.611     -50.654
  H      761.922     122.194     -50.369

 6  7  8  9  10  11  12  13  14  15  16  26  30  31  32  33  35 0
 6-311+G(2d,p)
 ****
 37  38 0
 6-311+G(2d,p)
 ****
 1  2  3  4  5  17  18  19  20  21  22  23  24  25 0
 3-21G
 ****
 27  28  29  34  36  39  40  41  42  43  44  45  46 0
 3-21G
 ****


