%nproc=1
%NoSave
%Mem=1900MB
#P OB98/GEN NMR

erre ene a

0 1
  C      152.645     -55.750    -417.511
  O      152.179     -55.359    -416.237
  H      152.991     -56.786    -417.486
  H      151.822     -55.672    -418.227
  H      153.458     -55.094    -417.836
  P      153.241     -55.392    -415.036
  C      151.830     -57.014    -413.575
  O      153.032     -56.806    -414.307
  C      151.287     -58.408    -413.869
  O      150.746     -58.460    -415.209
  C      152.333     -59.517    -413.802
  O      152.585     -59.934    -412.473
  C      151.636     -60.605    -414.599
  O      150.625     -61.229    -413.787
  C      150.988     -59.797    -415.731
  N      152.365     -62.130    -420.071
  C      151.531     -62.498    -419.074
  N      151.221     -61.820    -417.951
  C      151.874     -60.648    -417.906
  C      152.760     -60.145    -418.843
  C      152.997     -60.940    -419.976
  N      153.859     -60.573    -420.987
  N      153.258     -58.921    -418.433
  C      152.655     -58.681    -417.286
  N      151.815     -59.704    -416.920
  O      152.647     -54.346    -413.977
  O      154.653     -55.084    -415.410
  H      150.291     -61.992    -414.293
  H      153.349     -54.044    -413.373
  H      151.051     -63.466    -419.198
  H      152.791     -57.790    -416.689
  H      150.019     -60.208    -416.039
  H      152.314     -61.394    -414.929
  H      153.258     -59.229    -414.317
  H      150.464     -58.605    -413.170
  H      151.092     -56.266    -413.879
  H      154.098     -61.290    -421.656
  H      154.444     -59.762    -420.850
  H      152.037     -56.901    -412.507
  P      154.054     -59.657    -411.878
  C      154.492     -62.156    -411.292
  O      154.865     -61.024    -412.074
  O      153.803     -59.595    -410.303
  O      154.715     -58.428    -412.402
  H      154.480     -59.047    -409.865
  H      155.124     -62.984    -411.538
  H      153.474     -62.412    -411.498
  H      154.598     -61.923    -410.253

 6  7  8  9  10  11  12  13  14  15  25  28  32  33  34  35 0
 6-311+G(2d,p)
 ****
 36  39  40 0
 6-311+G(2d,p)
 ****
 1  2  3  4  5  16  17  18  19  20  21  22  23  24 0
 3-21G
 ****
 26  27  29  30  31  37  38  41  42  43  44  45  46  47 0
 3-21G
 ****
 48 0
 3-21G
 ****


