%nproc=1
%NoSave
%Mem=1900MB
#P OB98/GEN NMR

erre ene a

0 1
  C       96.690     257.868     -37.698
  O       97.512     257.709     -38.836
  H       97.262     258.392     -36.927
  H       96.389     256.894     -37.306
  H       95.806     258.464     -37.941
  P       96.905     256.961     -40.119
  C       97.825     254.706     -39.233
  O       96.679     255.447     -39.619
  C       97.409     253.383     -38.596
  O       96.749     253.596     -37.331
  C       96.414     252.564     -39.412
  O       96.983     251.937     -40.549
  C       95.974     251.561     -38.360
  O       97.003     250.573     -38.173
  C       95.841     252.476     -37.120
  N       94.474     252.956     -36.917
  C       93.572     252.053     -36.342
  O       93.928     250.915     -36.040
  N       92.270     252.447     -36.154
  C       91.894     253.631     -36.528
  N       90.591     253.968     -36.325
  C       92.806     254.607     -37.155
  C       94.066     254.211     -37.317
  O       97.677     257.109     -41.391
  O       95.400     257.493     -40.220
  H       96.592     249.822     -37.708
  H       94.981     257.068     -41.007
  H       92.437     255.570     -37.477
  H       94.794     254.869     -37.776
  H       96.173     251.957     -36.212
  H       95.061     251.029     -38.625
  H       95.546     253.172     -39.696
  H       98.325     252.814     -38.391
  H       89.990     253.279     -35.892
  H       98.407     255.313     -38.533
  H       90.194     254.839     -36.652
  H       98.443     254.487     -40.110
  P       95.966     251.424     -41.684
  C       96.007     248.993     -40.731
  O       95.236     250.131     -41.082
  O       96.942     250.838     -42.805
  O       95.033     252.464     -42.217
  H       97.074     251.487     -43.522
  H       95.362     248.230     -40.348
  H       96.722     249.264     -39.983
  H       96.518     248.627     -41.597

 6  7  8  9  10  11  12  13  14  15  16  26  30  31  32  33  35 0
 6-311+G(2d,p)
 ****
 37  38 0
 6-311+G(2d,p)
 ****
 1  2  3  4  5  17  18  19  20  21  22  23  24  25 0
 3-21G
 ****
 27  28  29  34  36  39  40  41  42  43  44  45  46 0
 3-21G
 ****


