%nproc=1
%NoSave
%Mem=1900MB
#P OB98/GEN NMR

erre ene a

0 1
  C      823.315     120.643     236.563
  O      823.993     121.311     235.508
  P      823.108     121.903     234.309
  C      825.005     121.373     232.617
  O      824.148     122.363     233.180
  C      825.654     121.890     231.336
  O      824.641     122.185     230.345
  C      826.444     123.184     231.510
  O      827.751     122.948     232.019
  C      826.516     123.674     230.070
  O      827.542     122.954     229.361
  C      825.132     123.287     229.540
  N      823.547     127.567     227.220
  C      824.579     126.733     226.965
  N      824.948     125.622     227.633
  C      824.131     125.422     228.690
  C      823.063     126.199     229.094
  C      822.768     127.315     228.302
  N      821.695     128.153     228.546
  N      822.479     125.672     230.221
  C      823.165     124.583     230.494
  N      824.176     124.379     229.590
  O      822.573     123.293     234.915
  O      821.982     121.028     233.857
  H      828.402     123.262     229.721
  H      821.759     123.569     234.455
  H      825.193     126.993     226.104
  H      822.974     123.913     231.318
  H      825.167     122.932     228.497
  H      826.758     124.735     229.994
  H      825.887     123.908     232.120
  H      826.295     121.100     230.938
  H      824.407     120.484     232.376
  H      821.436     128.816     227.829
  H      820.999     127.848     229.226
  H      825.762     121.105     233.356
  P      828.160     123.763     233.341
  C      829.877     125.438     232.314
  O      829.665     124.259     233.074
  O      828.329     122.608     234.433
  O      827.183     124.807     233.746
  H      828.191     122.974     235.331
  H      830.898     125.793     232.497
  H      829.174     126.229     232.611
  H      829.755     125.222     231.244
  H      824.027     120.304     237.286
  H      822.780     119.804     236.169
  H      822.627     121.318     237.029

 3  4  5  6  7  8  9  10  11  12  22  25  29  30  31  32 0
 6-311+G(2d,p)
 ****
 33  36  37 0
 6-311+G(2d,p)
 ****
 1  2  13  14  15  16  17  18  19  20  21  23  24  26 0
 3-21G
 ****
 27  28  34  35  38  39  40  41  42  43  44  45  46  47  48 0
 3-21G
 ****


