%nproc=1
%NoSave
%Mem=1900MB
#P OB98/GEN NMR

erre ene a

0 1
  C      -23.332     306.901    -171.450
  O      -23.063     306.207    -172.653
  H      -22.632     306.559    -170.684
  H      -24.350     306.698    -171.109
  H      -23.196     307.977    -171.590
  P      -23.966     306.534    -173.934
  C      -26.517     306.423    -174.314
  O      -25.394     305.863    -173.647
  C      -27.808     305.865    -173.724
  O      -27.710     305.781    -172.289
  C      -29.044     306.709    -174.027
  O      -29.527     306.429    -175.331
  C      -29.978     306.233    -172.927
  O      -30.512     304.941    -173.269
  C      -29.013     306.113    -171.735
  N      -31.043     308.889    -168.011
  C      -31.502     307.729    -168.604
  N      -32.696     307.270    -168.170
  N      -30.861     307.092    -169.550
  C      -29.719     307.709    -169.929
  C      -29.169     308.868    -169.427
  C      -29.859     309.533    -168.344
  O      -29.477     310.553    -167.779
  N      -28.032     309.220    -170.110
  C      -27.875     308.255    -170.996
  N      -28.880     307.320    -170.936
  O      -23.384     306.170    -175.267
  O      -24.262     308.100    -173.813
  H      -30.937     304.593    -172.462
  H      -23.603     308.623    -174.304
  H      -31.592     309.342    -167.300
  H      -27.052     308.184    -171.696
  H      -29.296     305.304    -171.052
  H      -30.823     306.902    -172.762
  H      -33.346     307.860    -167.668
  H      -28.851     307.777    -173.883
  H      -33.073     306.449    -168.627
  H      -27.931     304.840    -174.097
  H      -26.437     306.164    -175.374
  H      -26.511     307.514    -174.218
  P      -30.463     307.478    -176.111
  C      -32.869     308.347    -175.755
  O      -31.869     307.424    -175.345
  O      -30.547     307.266    -177.583
  O      -29.895     308.909    -175.693
  H      -29.170     309.235    -176.283
  H      -33.750     308.203    -175.166
  H      -33.100     308.187    -176.787
  H      -32.509     309.346    -175.621

 6  7  8  9  10  11  12  13  14  15  26  29  33  34 0
 6-311+G(2d,p)
 ****
 36  38  39  40  41 0
 6-311+G(2d,p)
 ****
 1  2  3  4  5  16  17  18  19  20  21  22  23  24  25 0
 3-21G
 ****
 27  28  30  31  32  35  37  42  43  44  45  46  47 0
 3-21G
 ****
 48  49 0
 3-21G
 ****


