%nproc=1
%NoSave
%Mem=1900MB
#P OB98/GEN NMR

erre ene a

0 1
  C       13.951     743.046    -703.089
  O       14.769     741.922    -703.369
  P       16.346     742.102    -703.591
  C       16.610     739.654    -702.860
  O       16.963     740.628    -703.829
  C       17.610     738.503    -702.833
  O       17.414     737.650    -703.995
  C       19.101     738.950    -702.861
  O       19.833     738.001    -702.064
  C       19.475     738.804    -704.320
  O       20.883     738.698    -704.528
  C       18.690     737.532    -704.674
  N       19.940     734.849    -708.872
  C       20.365     734.769    -707.577
  N       19.993     735.541    -706.521
  C       19.088     736.470    -706.892
  C       18.580     736.678    -708.167
  C       19.013     735.820    -709.178
  N       18.566     735.851    -710.495
  N       17.708     737.773    -708.157
  C       17.718     738.188    -706.910
  N       18.472     737.406    -706.100
  O       17.055     742.904    -702.555
  O       16.457     742.780    -705.031
  H       21.040     738.495    -705.463
  H       16.704     743.728    -704.934
  H       21.093     733.994    -707.388
  H       17.175     739.060    -706.538
  H       19.186     736.618    -704.314
  H       19.125     739.664    -704.887
  H       19.263     739.961    -702.480
  H       17.414     737.879    -701.945
  H       15.621     739.243    -703.133
  H       18.843     735.105    -711.109
  H       17.710     736.379    -710.686
  H       16.523     740.114    -701.869
  P       20.885     738.508    -700.965
  C       20.641     736.260    -699.788
  O       21.550     737.182    -700.335
  O       20.368     739.516    -699.995
  O       22.087     739.114    -701.876
  H       22.648     739.689    -701.309
  H       20.326     736.588    -698.782
  H       21.138     735.274    -699.709
  H       19.755     736.150    -700.403
  H       12.936     742.728    -702.973
  H       14.016     743.745    -703.897
  H       14.284     743.513    -702.186

 3  4  5  6  7  8  9  10  11  12  22  25  29  30  31  32 0
 6-311+G(2d,p)
 ****
 33  36  37 0
 6-311+G(2d,p)
 ****
 1  2  13  14  15  16  17  18  19  20  21  23  24  26 0
 3-21G
 ****
 27  28  34  35  38  39  40  41  42  43  44  45  46  47  48 0
 3-21G
 ****


