%nproc=1
%NoSave
%Mem=1900MB
#P OB98/GEN NMR

erre ene a

0 1
  C     1175.868    -877.095    -631.120
  O     1175.920    -878.521    -631.281
  P     1176.703    -879.237    -632.486
  C     1178.579    -880.080    -630.918
  O     1178.272    -879.349    -632.094
  C     1180.065    -880.464    -630.873
  O     1180.318    -881.616    -631.739
  C     1181.023    -879.339    -631.313
  O     1182.167    -879.426    -630.455
  C     1181.377    -879.758    -632.728
  O     1182.544    -879.143    -633.238
  C     1181.463    -881.278    -632.546
  N     1181.484    -882.063    -633.767
  C     1182.605    -881.931    -634.608
  O     1183.505    -881.140    -634.356
  N     1182.668    -882.710    -635.745
  C     1181.698    -883.517    -636.045
  N     1181.830    -884.256    -637.173
  C     1180.506    -883.672    -635.184
  C     1180.470    -882.931    -634.099
  O     1176.469    -878.609    -633.813
  O     1176.200    -880.757    -632.479
  H     1176.158    -881.085    -633.392
  H     1183.279    -879.378    -632.659
  H     1179.716    -884.369    -635.466
  H     1179.625    -883.010    -633.404
  H     1182.362    -881.518    -631.941
  H     1180.545    -879.485    -633.392
  H     1180.597    -878.345    -631.232
  H     1180.297    -880.783    -629.851
  H     1182.675    -884.125    -637.716
  H     1177.973    -880.997    -630.906
  H     1181.141    -884.920    -637.488
  H     1178.310    -879.478    -630.052
  P     1182.513    -878.217    -629.452
  C     1182.142    -879.370    -627.141
  O     1181.661    -878.445    -628.111
  O     1181.708    -877.002    -630.132
  O     1183.951    -877.856    -629.314
  H     1182.125    -876.153    -629.884
  H     1182.049    -878.916    -626.149
  H     1183.177    -879.649    -627.306
  H     1181.512    -880.262    -627.188
  H     1175.292    -876.855    -630.251
  H     1175.412    -876.655    -631.982
  H     1176.861    -876.712    -631.007

 3  4  5  6  7  8  9  10  11  12  13  24  27  28  29  30  32 0
 6-311+G(2d,p)
 ****
 34  35 0
 6-311+G(2d,p)
 ****
 1  2  14  15  16  17  18  19  20  21  22  23  25  26 0
 3-21G
 ****
 31  33  36  37  38  39  40  41  42  43  44  45  46 0
 3-21G
 ****


