%nproc=1
%NoSave
%Mem=1900MB
#P OB98/GEN NMR

erre ene a

0 1
  C     -106.807    -147.348     -71.878
  O     -107.795    -148.277     -71.414
  P     -107.407    -149.831     -71.374
  C     -108.610    -150.450     -69.150
  O     -108.540    -150.622     -70.559
  C     -110.069    -150.408     -68.687
  O     -110.796    -149.327     -69.305
  C     -110.854    -151.666     -69.023
  O     -110.621    -152.697     -68.074
  C     -112.283    -151.161     -68.912
  O     -112.680    -151.114     -67.527
  C     -112.171    -149.742     -69.480
  N     -115.982    -149.050     -72.830
  C     -115.971    -149.132     -71.481
  N     -114.920    -149.335     -70.661
  C     -113.782    -149.445     -71.366
  C     -113.638    -149.383     -72.741
  C     -114.808    -149.176     -73.491
  N     -114.813    -149.092     -74.863
  N     -112.318    -149.550     -73.104
  C     -111.673    -149.693     -71.963
  N     -112.516    -149.646     -70.886
  O     -106.152    -149.865     -70.381
  O     -107.064    -150.405     -72.709
  H     -112.710    -152.035     -67.209
  H     -105.524    -150.556     -70.665
  H     -116.937    -149.019     -70.995
  H     -110.604    -149.831     -71.868
  H     -112.802    -149.026     -68.940
  H     -113.000    -151.809     -69.425
  H     -110.649    -151.995     -70.050
  H     -110.074    -150.250     -67.600
  H     -108.096    -149.530     -68.858
  H     -115.687    -148.914     -75.330
  H     -113.935    -149.163     -75.359
  H     -108.069    -151.270     -68.665
  P     -109.879    -154.021     -68.593
  C     -108.583    -154.754     -66.464
  O     -109.703    -154.954     -67.304
  O     -108.396    -153.501     -68.904
  O     -110.510    -154.655     -69.785
  H     -108.003    -154.025     -69.628
  H     -108.773    -155.240     -65.504
  H     -108.407    -153.690     -66.288
  H     -107.696    -155.203     -66.919
  H     -107.208    -146.356     -71.848
  H     -106.532    -147.592     -72.883
  H     -105.943    -147.402     -71.249

 3  4  5  6  7  8  9  10  11  12  22  25  29  30  31  32 0
 6-311+G(2d,p)
 ****
 33  36  37 0
 6-311+G(2d,p)
 ****
 1  2  13  14  15  16  17  18  19  20  21  23  24  26 0
 3-21G
 ****
 27  28  34  35  38  39  40  41  42  43  44  45  46  47  48 0
 3-21G
 ****


