%nproc=1
%NoSave
%Mem=1900MB
#P OB98/GEN NMR

erre ene a

0 1
  C        2.850    -141.085     139.727
  O        2.530    -139.692     139.779
  P        3.689    -138.698     140.276
  C        3.187    -138.614     142.817
  O        4.058    -139.074     141.794
  C        3.897    -138.561     144.175
  O        4.438    -139.865     144.530
  C        5.061    -137.569     144.224
  O        5.121    -137.027     145.549
  C        6.273    -138.453     144.005
  O        7.472    -137.823     144.450
  C        5.849    -139.696     144.785
  N       10.498    -141.790     144.525
  C       10.070    -140.594     144.977
  N        8.810    -140.100     144.993
  C        7.946    -141.008     144.509
  C        8.234    -142.266     144.002
  C        9.583    -142.654     144.019
  N       10.024    -143.863     143.533
  N        7.082    -142.885     143.552
  C        6.120    -142.012     143.781
  N        6.589    -140.877     144.384
  O        2.933    -137.293     140.410
  O        4.848    -138.607     139.341
  H        7.383    -137.643     145.411
  H        3.213    -136.696     139.691
  H       10.840    -139.940     145.379
  H        5.082    -142.146     143.525
  H        5.988    -139.576     145.868
  H        6.381    -138.682     142.937
  H        4.999    -136.756     143.494
  H        3.157    -138.295     144.942
  H        2.319    -139.274     142.893
  H       11.012    -144.055     143.555
  H        9.360    -144.495     143.111
  H        2.793    -137.631     142.536
  P        4.322    -135.659     145.799
  C        6.502    -134.277     146.056
  O        5.302    -134.480     145.338
  O        4.291    -135.527     147.395
  O        2.949    -135.635     145.209
  H        3.525    -134.991     147.674
  H        7.303    -134.047     145.348
  H        6.790    -135.158     146.638
  H        6.375    -133.429     146.735
  H        1.999    -141.634     139.382
  H        3.122    -141.425     140.704
  H        3.669    -141.238     139.055

 3  4  5  6  7  8  9  10  11  12  22  25  29  30  31  32 0
 6-311+G(2d,p)
 ****
 33  36  37 0
 6-311+G(2d,p)
 ****
 1  2  13  14  15  16  17  18  19  20  21  23  24  26 0
 3-21G
 ****
 27  28  34  35  38  39  40  41  42  43  44  45  46  47  48 0
 3-21G
 ****


