%nproc=1
%NoSave
%Mem=1900MB
#P OB98/GEN NMR

erre ene a

0 1
  C      -18.835     289.789    -335.565
  O      -19.269     290.665    -336.583
  H      -19.585     289.783    -334.768
  H      -17.887     290.133    -335.148
  H      -18.727     288.770    -335.948
  P      -18.435     290.734    -337.949
  C      -18.042     293.283    -337.934
  O      -18.685     292.188    -338.577
  C      -18.174     294.539    -338.794
  O      -17.611     294.304    -340.103
  C      -19.616     294.965    -339.041
  O      -20.180     295.579    -337.902
  C      -19.439     295.874    -340.245
  O      -19.026     297.186    -339.848
  C      -18.317     295.160    -341.030
  N      -18.837     294.395    -342.162
  C      -19.040     295.104    -343.341
  O      -18.799     296.303    -343.465
  N      -19.597     294.397    -344.375
  C      -20.087     293.125    -344.291
  O      -20.795     292.618    -345.156
  C      -19.786     292.404    -343.044
  C      -19.194     293.066    -342.049
  O      -18.636     289.593    -338.889
  O      -16.912     290.819    -337.454
  H      -16.495     289.942    -337.552
  H      -19.783     297.568    -339.357
  H      -19.791     294.918    -345.219
  H      -20.093     291.369    -342.968
  H      -18.993     292.566    -341.105
  H      -17.586     295.890    -341.403
  H      -20.369     295.977    -340.812
  H      -20.213     294.095    -339.336
  H      -17.603     295.346    -338.315
  H      -16.980     293.040    -337.805
  H      -18.496     293.434    -336.949
  P      -21.273     294.807    -337.021
  C      -22.027     297.031    -335.976
  O      -21.602     295.695    -335.728
  O      -20.961     293.375    -336.737
  O      -22.620     294.931    -337.883
  H      -23.020     294.043    -337.975
  H      -22.216     297.524    -335.045
  H      -22.923     297.018    -336.561
  H      -21.261     297.556    -336.508

 6  7  8  9  10  11  12  13  14  15  16  27  31  32  33  34  35 0
 6-311+G(2d,p)
 ****
 36  37 0
 6-311+G(2d,p)
 ****
 1  2  3  4  5  17  18  19  20  21  22  23  24  25 0
 3-21G
 ****
 26  28  29  30  38  39  40  41  42  43  44  45 0
 3-21G
 ****


