%nproc=1
%NoSave
%Mem=1900MB
#P OB98/GEN NMR

erre ene a

0 1
  C       54.233     -54.914       9.059
  O       54.363     -53.659       8.422
  H       55.227     -55.256       9.361
  H       53.801     -55.651       8.379
  H       53.611     -54.822       9.955
  P       53.056     -52.991       7.782
  C       51.762     -52.623       9.990
  O       52.441     -52.020       8.899
  C       50.668     -51.694      10.533
  O       49.727     -52.483      11.314
  C       51.201     -50.579      11.451
  O       50.321     -49.456      11.313
  C       51.046     -51.218      12.816
  O       51.162     -50.269      13.847
  C       49.694     -51.918      12.643
  N       49.452     -52.927      13.661
  C       49.005     -52.461      14.899
  O       48.848     -51.255      15.090
  N       48.775     -53.369      15.903
  C       49.036     -54.623      15.706
  N       48.803     -55.469      16.746
  C       49.567     -55.150      14.431
  C       49.744     -54.256      13.460
  O       52.077     -53.936       7.168
  O       53.637     -51.969       6.695
  H       51.987     -49.743      13.748
  H       53.512     -52.334       5.799
  H       49.786     -56.201      14.325
  H       50.130     -54.547      12.487
  H       48.872     -51.191      12.671
  H       51.833     -51.960      12.985
  H       52.227     -50.287      11.216
  H       50.109     -51.276       9.687
  H       48.450     -55.064      17.605
  H       52.503     -52.823      10.770
  H       48.987     -56.460      16.717
  H       51.314     -53.574       9.678
  P       50.523     -48.322      10.197
  C       49.682     -49.380       7.999
  O       49.396     -48.482       9.069
  O       51.916     -48.241       9.660
  O       50.129     -46.949      10.924
  H       50.654     -46.223      10.540
  H       48.857     -49.397       7.318
  H       49.841     -50.363       8.391
  H       50.562     -49.054       7.485

 6  7  8  9  10  11  12  13  14  15  16  26  30  31  32  33  35 0
 6-311+G(2d,p)
 ****
 37  38 0
 6-311+G(2d,p)
 ****
 1  2  3  4  5  17  18  19  20  21  22  23  24  25 0
 3-21G
 ****
 27  28  29  34  36  39  40  41  42  43  44  45  46 0
 3-21G
 ****


