%nproc=1
%NoSave
%Mem=1900MB
#P OB98/GEN NMR

erre ene a

0 1
  C      -43.859    -194.260      29.603
  O      -42.878    -193.360      30.077
  H      -43.382    -194.978      28.933
  H      -44.624    -193.714      29.046
  H      -44.316    -194.801      30.435
  P      -43.353    -192.271      31.155
  C      -43.930    -193.330      33.450
  O      -42.912    -192.834      32.594
  C      -43.410    -194.495      34.289
  O      -42.963    -195.557      33.394
  C      -42.229    -194.139      35.204
  O      -42.353    -194.907      36.408
  C      -41.031    -194.663      34.430
  O      -39.897    -194.894      35.264
  C      -41.636    -195.926      33.818
  N      -37.316    -198.230      32.661
  C      -37.858    -197.903      33.889
  N      -37.138    -198.241      34.981
  N      -39.005    -197.296      34.036
  C      -39.633    -197.048      32.861
  C      -39.202    -197.314      31.583
  C      -37.916    -197.962      31.434
  O      -37.376    -198.259      30.373
  N      -40.115    -196.879      30.654
  C      -41.093    -196.354      31.370
  N      -40.846    -196.431      32.713
  O      -44.944    -192.447      31.152
  O      -42.945    -190.865      30.867
  H      -40.213    -195.312      36.092
  H      -45.353    -191.816      30.531
  H      -36.421    -198.684      32.604
  H      -41.991    -195.905      30.969
  H      -41.722    -196.742      34.546
  H      -40.742    -193.949      33.649
  H      -36.269    -198.751      34.947
  H      -42.152    -193.075      35.449
  H      -37.540    -198.050      35.892
  H      -44.244    -194.906      34.870
  H      -44.771    -193.674      32.839
  H      -44.274    -192.523      34.106
  P      -43.166    -194.265      37.629
  C      -45.593    -194.428      38.549
  O      -44.595    -194.989      37.711
  O      -43.540    -192.807      37.081
  O      -42.400    -194.194      38.908
  H      -43.635    -192.187      37.827
  H      -46.481    -195.023      38.494
  H      -45.811    -193.431      38.226
  H      -45.240    -194.407      39.559

 6  7  8  9  10  11  12  13  14  15  26  29  33  34 0
 6-311+G(2d,p)
 ****
 36  38  39  40  41 0
 6-311+G(2d,p)
 ****
 1  2  3  4  5  16  17  18  19  20  21  22  23  24  25 0
 3-21G
 ****
 27  28  30  31  32  35  37  42  43  44  45  46  47 0
 3-21G
 ****
 48  49 0
 3-21G
 ****


