%nproc=1
%NoSave
%Mem=1900MB
#P OB98/GEN NMR

erre ene a

0 1
  C      375.692    -871.891      96.947
  O      375.505    -871.536      95.588
  H      375.154    -871.173      97.577
  H      376.748    -871.859      97.220
  H      375.292    -872.891      97.138
  P      376.326    -872.349      94.474
  C      378.840    -872.791      94.043
  O      377.853    -872.320      94.958
  C      379.989    -871.789      93.951
  O      380.555    -871.552      95.262
  C      381.138    -872.278      93.091
  O      380.821    -872.177      91.716
  C      382.268    -871.380      93.570
  O      382.187    -870.081      92.968
  C      381.969    -871.298      95.087
  N      382.761    -872.239      95.867
  C      384.050    -871.804      96.232
  O      384.447    -870.682      95.892
  N      384.856    -872.658      96.946
  C      384.414    -873.829      97.285
  N      385.270    -874.638      97.981
  C      383.071    -874.321      96.937
  C      382.304    -873.487      96.231
  O      376.119    -871.938      93.047
  O      375.898    -873.874      94.731
  H      382.263    -870.232      92.000
  H      375.112    -874.097      94.207
  H      382.748    -875.303      97.237
  H      381.299    -873.773      95.936
  H      382.159    -870.280      95.463
  H      383.242    -871.800      93.331
  H      381.394    -873.309      93.352
  H      379.591    -870.835      93.582
  H      386.191    -874.258      98.195
  H      378.358    -872.901      93.073
  H      385.009    -875.525      98.380
  H      379.216    -873.766      94.367
  P      381.621    -873.045      90.621
  C      384.132    -873.377      90.150
  O      383.120    -872.496      90.667
  O      380.996    -873.096      89.264
  O      381.738    -874.489      91.316
  H      380.878    -874.963      91.313
  H      385.090    -872.907      90.232
  H      383.927    -873.592      89.122
  H      384.133    -874.288      90.712

 6  7  8  9  10  11  12  13  14  15  16  26  30  31  32  33  35 0
 6-311+G(2d,p)
 ****
 37  38 0
 6-311+G(2d,p)
 ****
 1  2  3  4  5  17  18  19  20  21  22  23  24  25 0
 3-21G
 ****
 27  28  29  34  36  39  40  41  42  43  44  45  46 0
 3-21G
 ****


