%nproc=1
%NoSave
%Mem=1900MB
#P OB98/GEN NMR

erre ene a

0 1
  C       -1.830    -231.940    -201.909
  O       -2.768    -232.873    -202.417
  P       -3.867    -233.534    -201.459
  C       -5.693    -231.799    -201.952
  O       -4.842    -232.354    -200.957
  C       -7.150    -231.779    -201.490
  O       -7.241    -231.074    -200.220
  C       -8.123    -231.092    -202.464
  O       -9.370    -231.787    -202.365
  C       -8.270    -229.700    -201.866
  O       -9.449    -229.031    -202.294
  C       -8.236    -230.042    -200.377
  N      -10.042    -225.865    -198.022
  C      -10.643    -226.778    -198.821
  N      -10.084    -227.850    -199.431
  C       -8.774    -227.931    -199.147
  C       -8.019    -227.058    -198.374
  C       -8.715    -225.986    -197.781
  N       -8.128    -225.068    -196.934
  N       -6.689    -227.446    -198.366
  C       -6.648    -228.529    -199.117
  N       -7.889    -228.895    -199.553
  O       -3.323    -234.401    -200.372
  O       -4.797    -234.373    -202.458
  H       -9.776    -228.482    -201.556
  H       -4.612    -235.328    -202.362
  H      -11.708    -226.638    -198.985
  H       -5.751    -229.083    -199.377
  H       -9.196    -230.434    -200.024
  H       -7.407    -229.086    -202.152
  H       -7.774    -231.070    -203.501
  H       -7.464    -232.814    -201.306
  H       -5.605    -232.418    -202.851
  H       -8.743    -224.423    -196.458
  H       -7.216    -225.281    -196.530
  H       -5.362    -230.782    -202.197
  P      -10.338    -231.886    -203.646
  C       -9.930    -234.400    -203.942
  O       -9.804    -233.110    -204.524
  O      -10.549    -230.603    -204.383
  O      -11.712    -232.453    -203.029
  H      -12.441    -232.281    -203.657
  H       -9.105    -234.560    -203.236
  H       -9.879    -235.155    -204.730
  H      -10.883    -234.499    -203.416
  H       -1.186    -231.616    -202.699
  H       -1.247    -232.403    -201.140
  H       -2.349    -231.097    -201.504

 3  4  5  6  7  8  9  10  11  12  22  25  29  30  31  32 0
 6-311+G(2d,p)
 ****
 33  36  37 0
 6-311+G(2d,p)
 ****
 1  2  13  14  15  16  17  18  19  20  21  23  24  26 0
 3-21G
 ****
 27  28  34  35  38  39  40  41  42  43  44  45  46  47  48 0
 3-21G
 ****


