%nproc=1
%NoSave
%Mem=1900MB
#P OB98/GEN NMR

erre ene a

0 1
  C       15.177    -205.669      51.569
  O       15.508    -204.769      50.531
  H       14.100    -205.612      51.755
  H       15.707    -205.396      52.485
  H       15.432    -206.693      51.283
  P       17.026    -204.776      50.019
  C       17.936    -202.880      51.556
  O       17.922    -204.266      51.253
  C       19.227    -202.524      52.292
  O       19.281    -201.080      52.463
  C       19.328    -203.154      53.686
  O       20.686    -203.514      53.941
  C       18.910    -202.022      54.612
  O       19.401    -202.158      55.937
  C       19.486    -200.813      53.866
  N       18.846    -199.559      54.254
  C       19.673    -198.492      54.585
  O       20.900    -198.504      54.503
  N       19.034    -197.362      55.031
  C       17.688    -197.211      55.194
  O       17.175    -196.183      55.621
  C       16.867    -198.378      54.838
  C       17.472    -199.480      54.390
  O       17.079    -203.542      48.998
  O       17.496    -206.049      49.402
  H       16.864    -203.839      48.092
  H       20.378    -202.202      55.895
  H       19.619    -196.578      55.276
  H       15.795    -198.296      54.963
  H       16.897    -200.359      54.131
  H       20.569    -200.744      54.031
  H       17.819    -201.960      54.660
  H       18.684    -204.028      53.802
  H       20.086    -202.806      51.667
  H       17.080    -202.645      52.195
  H       17.857    -202.306      50.627
  P       21.144    -205.003      53.548
  C       19.888    -206.176      55.520
  O       20.002    -205.979      54.120
  O       22.384    -205.224      54.528
  O       21.447    -205.154      52.091
  H       22.264    -204.819      55.403
  H       19.082    -206.850      55.721
  H       19.696    -205.238      55.998
  H       20.800    -206.589      55.898

 6  7  8  9  10  11  12  13  14  15  16  27  31  32  33  34  35 0
 6-311+G(2d,p)
 ****
 36  37 0
 6-311+G(2d,p)
 ****
 1  2  3  4  5  17  18  19  20  21  22  23  24  25 0
 3-21G
 ****
 26  28  29  30  38  39  40  41  42  43  44  45 0
 3-21G
 ****


