%nproc=1
%NoSave
%Mem=1900MB
#P OB98/GEN NMR

erre ene a

0 1
  C     1060.007    1732.089    -899.404
  O     1059.564    1732.173    -898.074
  P     1060.532    1732.857    -896.994
  C     1058.440    1733.048    -895.434
  O     1059.809    1732.689    -895.564
  C     1058.077    1733.210    -893.984
  O     1059.105    1733.935    -893.274
  C     1056.799    1733.974    -893.754
  O     1055.639    1733.163    -894.004
  C     1056.923    1734.395    -892.294
  O     1056.449    1733.360    -891.404
  C     1058.463    1734.562    -892.154
  N     1058.862    1735.966    -892.034
  C     1058.228    1736.679    -890.994
  O     1057.403    1736.154    -890.284
  N     1058.531    1738.010    -890.864
  C     1059.403    1738.576    -891.684
  N     1059.666    1739.898    -891.464
  C     1060.051    1737.856    -892.764
  C     1059.742    1736.573    -892.884
  O     1060.371    1734.427    -897.294
  O     1061.975    1732.394    -897.064
  H     1055.535    1733.172    -891.674
  H     1061.156    1734.920    -897.054
  H     1060.761    1738.376    -893.444
  H     1060.180    1735.969    -893.694
  H     1058.814    1734.024    -891.254
  H     1056.366    1735.291    -892.064
  H     1056.757    1734.886    -894.394
  H     1058.002    1732.205    -893.534
  H     1059.187    1740.376    -890.714
  H     1057.807    1732.239    -895.884
  H     1060.342    1740.406    -892.014
  H     1058.278    1733.976    -896.004
  P     1054.467    1733.795    -894.874
  C     1053.705    1731.339    -894.964
  O     1053.299    1732.688    -894.834
  O     1055.009    1733.620    -896.374
  O     1054.031    1735.197    -894.584
  H     1054.408    1734.052    -897.014
  H     1052.856    1730.685    -894.754
  H     1054.497    1731.110    -894.244
  H     1054.012    1731.131    -895.974
  H     1059.258    1731.612    -900.000
  H     1060.911    1731.518    -899.443
  H     1060.190    1733.073    -899.782

 3  4  5  6  7  8  9  10  11  12  13  21  23  27  28  29  30  32 0
 6-311+G(2d,p)
 ****
 34  35 0
 6-311+G(2d,p)
 ****
 1  2  14  15  16  17  18  19  20  22  24  25  26 0
 3-21G
 ****
 31  33  36  37  38  39  40  41  42  43  44  45  46 0
 3-21G
 ****


