%nproc=1
%NoSave
%Mem=1900MB
#P OB98/GEN NMR

erre ene a

0 1
  C      192.576     609.554     392.066
  O      191.383     609.953     391.410
  P      191.203     611.458     390.896
  C      190.883     613.792     391.899
  O      190.943     612.409     392.164
  C      189.618     614.417     392.507
  O      188.443     613.877     391.817
  C      189.438     614.158     394.012
  O      188.878     615.360     394.572
  C      188.420     613.023     394.043
  O      187.743     612.956     395.289
  C      187.549     613.379     392.834
  N      186.775     612.250     392.366
  C      185.402     612.461     392.154
  O      184.884     613.519     392.501
  N      184.662     611.448     391.577
  C      185.215     610.282     391.405
  N      184.461     609.329     390.774
  C      186.577     609.954     391.849
  C      187.324     610.988     392.271
  O      190.212     611.633     389.785
  O      192.679     611.893     390.411
  H      192.624     612.224     389.489
  H      187.251     613.783     395.433
  H      186.935     608.936     391.798
  H      188.343     610.851     392.594
  H      186.867     614.213     393.091
  H      188.930     612.072     393.885
  H      190.389     613.923     394.506
  H      189.640     615.481     392.305
  H      183.543     609.604     390.452
  H      190.871     613.934     390.819
  H      184.883     608.522     390.324
  H      191.778     614.292     392.293
  P      189.640     616.006     395.841
  C      190.495     615.127     398.146
  O      189.895     614.818     396.920
  O      188.436     616.809     396.545
  O      190.779     616.921     395.562
  H      188.819     617.546     397.074
  H      190.666     614.215     398.698
  H      189.852     615.786     398.730
  H      191.471     615.619     397.977
  H      192.508     608.520     392.332
  H      192.711     610.142     392.950
  H      193.409     609.700     391.411

 3  4  5  6  7  8  9  10  11  12  13  24  27  28  29  30  32 0
 6-311+G(2d,p)
 ****
 34  35 0
 6-311+G(2d,p)
 ****
 1  2  14  15  16  17  18  19  20  21  22  23  25  26 0
 3-21G
 ****
 31  33  36  37  38  39  40  41  42  43  44  45  46 0
 3-21G
 ****


