%nproc=1
%NoSave
%Mem=1900MB
#P OB98/GEN NMR

erre ene a

0 1
  C     -275.313     128.984      98.078
  O     -274.475     128.390      97.110
  H     -276.111     128.280      98.326
  H     -275.762     129.899      97.683
  H     -274.752     129.212      98.990
  P     -273.139     129.158      96.664
  C     -273.794     129.424      94.186
  O     -273.531     130.085      95.417
  C     -272.552     129.463      93.298
  O     -272.813     128.800      92.039
  C     -272.096     130.872      92.939
  O     -271.442     131.486      94.034
  C     -271.209     130.582      91.737
  O     -269.918     130.107      92.149
  C     -272.003     129.452      91.034
  N     -272.830     129.946      89.928
  C     -272.998     129.076      88.852
  O     -272.490     127.959      88.807
  N     -273.737     129.561      87.806
  C     -274.235     130.830      87.700
  O     -274.698     131.289      86.659
  C     -274.091     131.674      88.892
  C     -273.391     131.208      89.929
  O     -271.934     128.300      96.462
  O     -272.909     130.224      97.841
  H     -272.217     129.889      98.444
  H     -270.070     129.287      92.651
  H     -273.826     128.959      87.003
  H     -274.525     132.667      88.872
  H     -273.247     131.828      90.811
  H     -271.319     128.694      90.637
  H     -271.042     131.465      91.118
  H     -272.952     131.475      92.609
  H     -271.750     128.913      93.809
  H     -274.618     129.941      93.682
  H     -274.092     128.389      94.390
  P     -271.924     132.905      94.596
  C     -269.714     133.864      93.723
  O     -271.118     134.048      93.813
  O     -271.897     133.037      96.084
  O     -273.415     133.068      94.036
  H     -274.016     133.264      94.779
  H     -269.281     134.681      93.184
  H     -269.506     132.948      93.210
  H     -269.296     133.825      94.707

 6  7  8  9  10  11  12  13  14  15  16  27  31  32  33  34  35 0
 6-311+G(2d,p)
 ****
 36  37 0
 6-311+G(2d,p)
 ****
 1  2  3  4  5  17  18  19  20  21  22  23  24  25 0
 3-21G
 ****
 26  28  29  30  38  39  40  41  42  43  44  45 0
 3-21G
 ****


