%nproc=1
%NoSave
%Mem=1900MB
#P OB98/GEN NMR

erre ene a

0 1
  C      -84.594    -104.354     -48.402
  O      -85.827    -104.151     -49.063
  H      -84.520    -105.404     -48.106
  H      -84.536    -103.731     -47.505
  H      -83.763    -104.115     -49.072
  P      -86.168    -102.639     -49.485
  C      -85.348    -103.180     -51.902
  O      -85.204    -102.374     -50.743
  C      -85.744    -102.307     -53.089
  O      -84.721    -101.323     -53.361
  C      -85.926    -103.076     -54.394
  O      -87.169    -103.752     -54.468
  C      -85.840    -101.937     -55.394
  O      -87.074    -101.196     -55.390
  C      -84.687    -101.099     -54.798
  N      -83.375    -101.456     -55.341
  C      -83.122    -101.082     -56.667
  O      -83.978    -100.494     -57.326
  N      -81.913    -101.415     -57.230
  C      -81.029    -102.055     -56.528
  N      -79.854    -102.370     -57.139
  C      -81.246    -102.452     -55.125
  C      -82.426    -102.127     -54.602
  O      -85.485    -101.762     -48.333
  O      -87.610    -102.333     -49.718
  H      -87.045    -100.594     -56.156
  H      -85.533    -100.804     -48.568
  H      -80.482    -102.995     -54.585
  H      -82.657    -102.389     -53.576
  H      -84.854    -100.029     -54.963
  H      -85.674    -102.278     -56.419
  H      -85.093    -103.764     -54.575
  H      -86.658    -101.761     -52.818
  H      -79.757    -102.140     -58.119
  H      -86.123    -103.929     -51.709
  H      -79.186    -103.018     -56.736
  H      -84.406    -103.690     -52.124
  P      -87.270    -105.023     -55.446
  C      -87.133    -106.755     -53.515
  O      -86.542    -106.246     -54.703
  O      -86.253    -104.651     -56.623
  O      -88.644    -105.315     -55.963
  H      -86.598    -104.935     -57.491
  H      -86.539    -107.561     -53.138
  H      -88.119    -107.110     -53.731
  H      -87.186    -105.978     -52.782

 6  7  8  9  10  11  12  13  14  15  16  26  30  31  32  33  35 0
 6-311+G(2d,p)
 ****
 37  38 0
 6-311+G(2d,p)
 ****
 1  2  3  4  5  17  18  19  20  21  22  23  24  25 0
 3-21G
 ****
 27  28  29  34  36  39  40  41  42  43  44  45  46 0
 3-21G
 ****


