%nproc=1
%NoSave
%Mem=1900MB
#P OB98/GEN NMR

erre ene a

0 1
  C      -28.030     -40.505       7.684
  O      -28.554     -39.991       8.887
  H      -28.836     -41.006       7.141
  H      -27.248     -41.239       7.890
  H      -27.635     -39.700       7.060
  P      -27.575     -39.236       9.912
  C      -25.434     -39.910      11.157
  O      -26.591     -40.379      10.477
  C      -24.764     -41.037      11.944
  O      -25.565     -41.353      13.115
  C      -24.590     -42.334      11.140
  O      -23.263     -42.834      11.311
  C      -25.582     -43.289      11.785
  O      -25.238     -44.659      11.601
  C      -25.568     -42.787      13.231
  N      -26.706     -43.281      13.995
  C      -26.764     -44.664      14.191
  O      -25.880     -45.391      13.736
  N      -27.842     -45.194      14.848
  C      -28.806     -44.417      15.233
  N      -29.860     -45.010      15.853
  C      -28.800     -42.955      15.022
  C      -27.728     -42.458      14.406
  O      -28.268     -38.427      10.955
  O      -26.604     -38.365       8.984
  H      -25.841     -45.208      12.148
  H      -26.228     -37.628       9.519
  H      -29.630     -42.352      15.357
  H      -27.634     -41.396      14.205
  H      -24.645     -43.089      13.743
  H      -26.576     -43.130      11.345
  H      -24.789     -42.209      10.076
  H      -23.801     -40.671      12.321
  H      -29.827     -46.016      15.970
  H      -25.729     -39.096      11.829
  H      -30.677     -44.513      16.174
  H      -24.729     -39.526      10.413
  P      -22.132     -42.175      10.383
  C      -20.998     -42.844       8.148
  O      -22.155     -42.926       8.966
  O      -20.767     -42.666      11.060
  O      -22.209     -40.686      10.319
  H      -20.318     -41.911      11.484
  H      -21.162     -43.390       7.242
  H      -20.162     -43.261       8.670
  H      -20.798     -41.819       7.915

 6  7  8  9  10  11  12  13  14  15  16  26  30  31  32  33  35 0
 6-311+G(2d,p)
 ****
 37  38 0
 6-311+G(2d,p)
 ****
 1  2  3  4  5  17  18  19  20  21  22  23  24  25 0
 3-21G
 ****
 27  28  29  34  36  39  40  41  42  43  44  45  46 0
 3-21G
 ****


