%nproc=1
%NoSave
%Mem=1900MB
#P OB98/GEN NMR

erre ene a

0 1
  C     -891.122     461.785    1313.332
  O     -890.209     462.548    1312.554
  H     -891.543     462.423    1314.121
  H     -890.615     460.941    1313.820
  H     -891.935     461.413    1312.705
  P     -889.333     461.780    1311.442
  C     -888.390     462.444    1309.137
  O     -889.243     462.802    1310.221
  C     -887.780     463.685    1308.479
  O     -888.843     464.599    1308.101
  C     -886.876     464.472    1309.439
  O     -885.616     463.833    1309.565
  C     -886.843     465.837    1308.741
  O     -885.932     465.843    1307.642
  C     -888.320     465.948    1308.239
  N     -889.159     466.737    1309.153
  C     -889.334     468.077    1308.788
  O     -888.815     468.532    1307.772
  N     -890.100     468.868    1309.622
  C     -890.632     468.372    1310.689
  N     -891.380     469.224    1311.458
  C     -890.474     466.962    1311.105
  C     -889.725     466.203    1310.299
  O     -889.783     460.412    1311.067
  O     -887.840     461.800    1312.051
  H     -885.070     465.583    1308.014
  H     -887.701     460.999    1312.600
  H     -890.943     466.583    1312.008
  H     -889.566     465.166    1310.517
  H     -888.356     466.414    1307.245
  H     -886.563     466.626    1309.443
  H     -887.350     464.598    1310.412
  H     -887.237     463.385    1307.576
  H     -891.455     470.176    1311.172
  H     -888.989     461.886    1308.408
  H     -891.901     468.927    1312.267
  H     -887.568     461.778    1309.471
  P     -884.797     463.944    1310.958
  C     -883.577     462.249    1312.464
  O     -884.445     462.425    1311.364
  O     -885.448     464.741    1312.020
  O     -883.383     464.532    1310.483
  H     -883.445     465.489    1310.263
  H     -883.422     461.204    1312.632
  H     -884.013     462.690    1313.336
  H     -882.639     462.720    1312.257

 6  7  8  9  10  11  12  13  14  15  16  26  30  31  32  33  35 0
 6-311+G(2d,p)
 ****
 37  38 0
 6-311+G(2d,p)
 ****
 1  2  3  4  5  17  18  19  20  21  22  23  24  25 0
 3-21G
 ****
 27  28  29  34  36  39  40  41  42  43  44  45  46 0
 3-21G
 ****


