%nproc=1
%NoSave
%Mem=1900MB
#P OB98/GEN NMR

erre ene a

0 1
  C       32.705      20.993      22.684
  O       31.738      21.969      23.023
  H       33.217      20.677      23.595
  H       33.440      21.415      21.994
  H       32.219      20.125      22.231
  P       30.853      22.548      21.816
  C       32.829      24.138      21.290
  O       31.931      23.154      20.793
  C       33.195      25.132      20.189
  O       33.869      24.463      19.107
  C       32.000      25.838      19.560
  O       31.567      26.919      20.370
  C       32.613      26.322      18.255
  O       33.383      27.517      18.493
  C       33.552      25.162      17.874
  N       34.686      21.575      14.382
  C       35.462      22.459      15.044
  N       35.088      23.410      15.926
  C       33.756      23.402      16.100
  C       32.837      22.559      15.493
  C       33.351      21.602      14.601
  N       32.557      20.695      13.934
  N       31.557      22.846      15.915
  C       31.705      23.808      16.803
  N       33.013      24.205      16.924
  O       29.734      23.449      22.208
  O       30.412      21.193      21.085
  H       33.656      27.868      17.624
  H       31.143      20.550      21.085
  H       36.527      22.392      14.842
  H       30.906      24.239      17.395
  H       34.494      25.525      17.450
  H       31.857      26.576      17.509
  H       31.190      25.136      19.336
  H       33.900      25.857      20.614
  H       33.736      23.665      21.680
  H       32.982      20.163      13.191
  H       31.555      20.799      14.005
  H       32.326      24.655      22.113
  P       30.007      27.154      20.653
  C       30.149      29.178      19.075
  O       29.438      27.992      19.407
  O       29.687      27.734      21.988
  O       29.341      25.714      20.456
  H       28.632      25.574      21.112
  H       29.683      29.650      18.236
  H       31.160      28.930      18.829
  H       30.139      29.846      19.911

 6  7  8  9  10  11  12  13  14  15  25  28  32  33  34  35 0
 6-311+G(2d,p)
 ****
 36  39  40 0
 6-311+G(2d,p)
 ****
 1  2  3  4  5  16  17  18  19  20  21  22  23  24 0
 3-21G
 ****
 26  27  29  30  31  37  38  41  42  43  44  45  46  47 0
 3-21G
 ****
 48 0
 3-21G
 ****


