%nproc=1
%NoSave
%Mem=1900MB
#P OB98/GEN NMR

erre ene a

0 1
  C     -218.181     -82.456      99.627
  O     -218.450     -81.237      98.960
  H     -217.111     -82.670      99.548
  H     -218.737     -83.279      99.170
  H     -218.443     -82.371     100.686
  P     -219.973     -80.770      98.786
  C     -220.185     -79.842     101.181
  O     -220.189     -79.536      99.792
  C     -219.901     -78.588     102.012
  O     -218.517     -78.199     101.803
  C     -220.793     -77.395     101.647
  O     -221.107     -76.681     102.848
  C     -219.889     -76.565     100.757
  O     -220.283     -75.206     100.733
  C     -218.506     -76.829     101.359
  N     -217.445     -76.579     100.379
  C     -216.507     -75.594     100.712
  O     -216.586     -74.999     101.790
  N     -215.540     -75.262      99.797
  C     -215.543     -75.817      98.627
  N     -214.581     -75.413      97.753
  C     -216.530     -76.840      98.219
  C     -217.442     -77.172      99.138
  O     -221.006     -81.844      98.885
  O     -219.990     -80.069      97.344
  H     -220.197     -74.828     101.636
  H     -220.210     -80.726      96.657
  H     -216.492     -77.271      97.229
  H     -218.212     -77.907      98.924
  H     -218.332     -76.189     102.235
  H     -219.935     -76.947      99.728
  H     -221.714     -77.688     101.136
  H     -220.002     -78.843     103.077
  H     -213.944     -74.691      98.067
  H     -219.402     -80.586     101.361
  H     -214.509     -75.744      96.801
  H     -221.150     -80.271     101.470
  P     -222.540     -76.856     103.552
  C     -222.680     -79.304     104.295
  O     -222.421     -77.964     104.712
  O     -223.679     -77.063     102.607
  O     -222.732     -75.489     104.373
  H     -223.684     -75.278     104.432
  H     -222.577     -79.964     105.131
  H     -221.982     -79.582     103.533
  H     -223.675     -79.371     103.908

 6  7  8  9  10  11  12  13  14  15  16  26  30  31  32  33  35 0
 6-311+G(2d,p)
 ****
 37  38 0
 6-311+G(2d,p)
 ****
 1  2  3  4  5  17  18  19  20  21  22  23  24  25 0
 3-21G
 ****
 27  28  29  34  36  39  40  41  42  43  44  45  46 0
 3-21G
 ****


