%nproc=1
%NoSave
%Mem=1900MB
#P OB98/GEN NMR

erre ene a

0 1
  C     -384.443     116.442    -155.820
  O     -384.768     117.386    -156.827
  P     -385.501     118.765    -156.470
  C     -383.296     120.071    -156.364
  O     -384.468     119.680    -155.655
  C     -383.389     121.522    -156.846
  O     -383.538     122.401    -155.690
  C     -382.159     122.002    -157.636
  O     -382.652     122.856    -158.684
  C     -381.380     122.803    -156.620
  O     -380.497     123.739    -157.223
  C     -382.518     123.419    -155.803
  N     -382.079     123.872    -154.486
  C     -381.321     125.049    -154.441
  O     -380.948     125.585    -155.486
  N     -381.006     125.583    -153.215
  C     -381.251     124.891    -152.139
  N     -380.981     125.481    -150.937
  C     -381.826     123.528    -152.162
  C     -382.249     123.107    -153.358
  O     -386.843     118.618    -155.831
  O     -385.622     119.521    -157.879
  H     -386.556     119.785    -158.023
  H     -381.003     124.284    -157.868
  H     -381.898     122.947    -151.261
  H     -382.705     122.126    -153.476
  H     -382.966     124.266    -156.333
  H     -380.782     122.123    -155.994
  H     -381.598     121.169    -158.084
  H     -384.300     121.628    -157.448
  H     -380.628     126.431    -150.953
  H     -383.192     119.414    -157.233
  H     -381.424     125.171    -150.070
  H     -382.416     119.932    -155.731
  P     -381.830     122.911    -160.068
  C     -383.094     120.794    -160.883
  O     -381.849     121.446    -160.719
  O     -380.315     123.021    -159.531
  O     -382.124     124.061    -160.977
  H     -379.763     123.453    -160.219
  H     -382.911     119.782    -161.268
  H     -383.715     121.343    -161.601
  H     -383.619     120.717    -159.925
  H     -383.962     115.597    -156.266
  H     -385.338     116.124    -155.327
  H     -383.784     116.893    -155.108

 3  4  5  6  7  8  9  10  11  12  13  24  27  28  29  30  32 0
 6-311+G(2d,p)
 ****
 34  35 0
 6-311+G(2d,p)
 ****
 1  2  14  15  16  17  18  19  20  21  22  23  25  26 0
 3-21G
 ****
 31  33  36  37  38  39  40  41  42  43  44  45  46 0
 3-21G
 ****


