%nproc=1
%NoSave
%Mem=1900MB
#P OB98/GEN NMR

erre ene a

0 1
  C     -130.523    -196.561     148.345
  O     -130.668    -197.058     147.024
  P     -130.900    -196.055     145.794
  C     -133.408    -196.615     145.824
  O     -132.223    -196.557     145.037
  C     -134.606    -197.020     144.963
  O     -135.779    -197.108     145.807
  C     -134.915    -196.028     143.850
  O     -135.373    -196.747     142.701
  C     -136.076    -195.206     144.389
  O     -136.869    -194.660     143.322
  C     -136.793    -196.238     145.266
  N     -141.382    -195.609     147.479
  C     -140.998    -196.321     146.399
  N     -139.767    -196.425     145.851
  C     -138.872    -195.733     146.575
  C     -139.115    -194.959     147.703
  C     -140.442    -194.907     148.155
  N     -140.832    -194.189     149.266
  N     -137.948    -194.371     148.153
  C     -137.018    -194.796     147.325
  N     -137.524    -195.631     146.361
  O     -129.717    -195.858     144.909
  O     -131.369    -194.685     146.475
  H     -137.290    -195.417     142.859
  H     -130.984    -193.923     146.001
  H     -141.786    -196.885     145.906
  H     -135.975    -194.525     147.370
  H     -137.490    -196.853     144.681
  H     -135.687    -194.371     144.983
  H     -134.056    -195.403     143.580
  H     -134.420    -198.021     144.554
  H     -133.590    -195.624     146.248
  H     -141.780    -194.309     149.588
  H     -140.108    -193.812     149.866
  H     -133.266    -197.327     146.645
  P     -134.401    -196.713     141.417
  C     -136.587    -196.990     140.026
  O     -135.253    -197.395     140.243
  O     -133.057    -197.298     141.714
  O     -134.388    -195.147     141.077
  H     -135.201    -194.701     141.407
  H     -137.007    -197.594     139.216
  H     -136.620    -195.940     139.730
  H     -137.185    -197.144     140.931
  H     -130.378    -197.379     149.020
  H     -131.405    -196.022     148.622
  H     -129.677    -195.908     148.389

 3  4  5  6  7  8  9  10  11  12  22  25  29  30  31  32 0
 6-311+G(2d,p)
 ****
 33  36  37 0
 6-311+G(2d,p)
 ****
 1  2  13  14  15  16  17  18  19  20  21  23  24  26 0
 3-21G
 ****
 27  28  34  35  38  39  40  41  42  43  44  45  46  47  48 0
 3-21G
 ****


