%nproc=1
%NoSave
%Mem=1900MB
#P OB98/GEN NMR

erre ene a

0 1
  C     -898.170    -600.746    1406.523
  O     -897.430    -599.533    1406.435
  P     -898.130    -598.127    1405.981
  C     -897.570    -596.493    1407.947
  O     -898.520    -597.314    1407.316
  C     -897.220    -596.986    1409.326
  O     -896.570    -598.309    1409.252
  C     -896.220    -596.170    1410.137
  O     -896.820    -594.953    1410.640
  C     -895.800    -597.157    1411.229
  O     -896.720    -597.144    1412.322
  C     -895.840    -598.511    1410.495
  N     -894.540    -599.080    1410.273
  C     -894.480    -600.430    1409.913
  O     -895.510    -601.132    1409.847
  N     -893.250    -600.960    1409.626
  C     -892.180    -600.305    1409.755
  N     -890.950    -600.887    1409.428
  C     -892.160    -598.857    1410.282
  C     -893.340    -598.364    1410.490
  O     -899.220    -598.288    1404.989
  O     -896.880    -597.279    1405.367
  H     -897.260    -596.646    1404.717
  H     -897.610    -597.266    1411.933
  H     -891.260    -598.331    1410.414
  H     -893.460    -597.345    1410.908
  H     -896.450    -599.229    1411.084
  H     -894.820    -596.864    1411.668
  H     -895.340    -595.894    1409.488
  H     -898.170    -597.124    1409.930
  H     -891.030    -601.871    1409.075
  H     -897.960    -595.481    1408.027
  H     -890.090    -600.412    1409.511
  H     -896.640    -596.450    1407.297
  P     -896.670    -593.652    1409.688
  C     -899.290    -593.300    1409.777
  O     -898.160    -593.409    1408.981
  O     -895.730    -594.109    1408.472
  O     -896.150    -592.424    1410.383
  H     -895.090    -593.395    1408.194
  H     -900.000    -592.665    1409.253
  H     -899.060    -592.806    1410.734
  H     -899.680    -594.257    1409.977
  H     -897.522    -601.537    1406.836
  H     -898.584    -600.982    1405.565
  H     -898.961    -600.630    1407.234

 3  4  5  6  7  8  9  10  11  12  13  24  27  28  29  30  32 0
 6-311+G(2d,p)
 ****
 34  35 0
 6-311+G(2d,p)
 ****
 1  2  14  15  16  17  18  19  20  21  22  23  25  26 0
 3-21G
 ****
 31  33  36  37  38  39  40  41  42  43  44  45  46 0
 3-21G
 ****


