%nproc=1
%NoSave
%Mem=1900MB
#P OB98/GEN NMR

erre ene a

0 1
  C      323.995    -305.528     -85.824
  O      323.142    -304.746     -84.971
  P      323.185    -303.141     -85.079
  C      320.608    -302.743     -84.955
  O      321.883    -302.496     -84.383
  C      319.484    -302.522     -83.920
  O      319.437    -303.642     -82.994
  C      319.637    -301.250     -83.076
  O      318.316    -300.773     -82.779
  C      320.300    -301.769     -81.812
  O      320.157    -300.898     -80.697
  C      319.575    -303.114     -81.660
  N      320.251    -304.071     -80.779
  C      319.906    -304.071     -79.431
  O      319.111    -303.289     -78.911
  N      320.539    -305.012     -78.654
  C      321.489    -305.898     -79.082
  O      322.041    -306.695     -78.329
  C      321.838    -305.829     -80.507
  C      321.211    -304.933     -81.278
  O      322.887    -302.903     -86.639
  O      324.479    -302.506     -84.697
  H      320.616    -301.316     -79.946
  H      323.517    -302.250     -86.993
  H      320.290    -305.040     -77.676
  H      322.583    -306.517     -80.880
  H      321.441    -304.872     -82.333
  H      318.559    -302.938     -81.286
  H      321.372    -301.903     -81.989
  H      320.216    -300.471     -83.577
  H      318.526    -302.516     -84.458
  H      320.561    -303.772     -85.316
  H      320.466    -302.068     -85.808
  P      317.684    -299.626     -83.712
  C      315.260    -300.622     -83.804
  O      316.117    -299.570     -83.395
  O      317.742    -300.356     -85.142
  O      318.421    -298.326     -83.677
  H      317.434    -301.277     -85.108
  H      315.730    -301.602     -83.653
  H      315.015    -300.499     -84.864
  H      314.343    -300.574     -83.216
  H      323.842    -306.568     -85.624
  H      325.017    -305.275     -85.635
  H      323.760    -305.323     -86.848

 3  4  5  6  7  8  9  10  11  12  13  23  28  29  30  31  32 0
 6-311+G(2d,p)
 ****
 33  34 0
 6-311+G(2d,p)
 ****
 1  2  14  15  16  17  18  19  20  21  22  24  25  26 0
 3-21G
 ****
 27  35  36  37  38  39  40  41  42  43  44  45 0
 3-21G
 ****


