%nproc=1
%NoSave
%Mem=1900MB
#P OB98/GEN NMR

erre ene a

0 1
  C       80.616    -603.675    -173.647
  O       80.897    -602.496    -172.912
  H       81.435    -604.382    -173.505
  H       80.523    -603.441    -174.713
  H       79.690    -604.130    -173.284
  P       79.822    -601.310    -173.014
  C       81.766    -599.595    -172.924
  O       80.551    -600.049    -172.333
  C       82.216    -598.287    -172.274
  O       81.178    -597.291    -172.369
  C       82.560    -598.415    -170.790
  O       83.892    -598.880    -170.635
  C       82.432    -596.965    -170.349
  O       83.629    -596.237    -170.690
  C       81.248    -596.452    -171.184
  N       77.152    -593.644    -169.889
  C       78.345    -593.292    -170.390
  N       79.413    -594.079    -170.662
  C       79.140    -595.370    -170.366
  C       77.955    -595.874    -169.845
  C       76.924    -594.951    -169.609
  N       75.694    -595.312    -169.083
  N       78.044    -597.241    -169.663
  C       79.240    -597.557    -170.128
  N       79.955    -596.460    -170.528
  O       78.450    -601.630    -172.513
  O       79.906    -600.958    -174.575
  H       84.367    -596.679    -170.229
  H       80.829    -600.978    -174.879
  H       78.479    -592.240    -170.612
  H       79.622    -598.579    -170.212
  H       81.414    -595.418    -171.535
  H       82.304    -596.864    -169.267
  H       81.829    -599.017    -170.255
  H       83.077    -597.908    -172.842
  H       81.621    -599.446    -174.006
  H       75.094    -594.574    -168.772
  H       75.585    -596.269    -168.758
  H       82.516    -600.379    -172.786
  P       84.193    -600.255    -169.859
  C       85.739    -599.077    -168.178
  O       85.650    -600.052    -169.205
  O       84.015    -601.486    -170.681
  O       83.228    -600.209    -168.587
  H       83.138    -601.110    -168.205
  H       86.746    -599.028    -167.819
  H       85.087    -599.346    -167.374
  H       85.452    -598.122    -168.567

 6  7  8  9  10  11  12  13  14  15  25  28  32  33  34  35 0
 6-311+G(2d,p)
 ****
 36  39  40 0
 6-311+G(2d,p)
 ****
 1  2  3  4  5  16  17  18  19  20  21  22  23  24 0
 3-21G
 ****
 26  27  29  30  31  37  38  41  42  43  44  45  46  47 0
 3-21G
 ****
 48 0
 3-21G
 ****


