%nproc=1
%NoSave
%Mem=1900MB
#P OB98/GEN NMR

erre ene a

0 1
  C      863.354     173.961     242.450
  O      864.491     173.149     242.625
  P      864.693     171.824     241.725
  C      864.366     170.519     243.925
  O      864.006     170.629     242.543
  C      863.122     170.259     244.773
  O      862.025     171.119     244.343
  C      862.571     168.851     244.660
  O      863.364     167.793     245.164
  C      861.177     169.019     245.261
  O      861.230     168.994     246.698
  C      860.800     170.427     244.756
  N      859.816     170.388     243.667
  C      858.915     171.439     243.614
  O      858.932     172.384     244.408
  N      857.978     171.373     242.619
  C      857.806     170.348     241.737
  O      856.912     170.322     240.905
  C      858.778     169.249     241.847
  C      859.721     169.311     242.801
  O      866.091     171.567     241.283
  O      863.658     172.043     240.519
  H      861.759     169.766     246.965
  H      862.727     172.136     240.793
  H      857.304     172.119     242.579
  H      858.682     168.415     241.149
  H      860.454     168.504     242.910
  H      860.366     171.023     245.571
  H      860.502     168.218     244.943
  H      862.428     168.627     243.590
  H      863.355     170.526     245.812
  H      864.832     171.467     244.240
  H      865.105     169.722     244.060
  P      863.855     166.556     244.272
  C      862.036     165.170     245.507
  O      862.706     165.440     244.300
  O      865.261     166.092     244.467
  O      863.705     167.143     242.781
  H      864.385     166.740     242.214
  H      861.312     164.365     245.338
  H      861.490     166.061     245.843
  H      862.756     164.876     246.275
  H      863.396     174.786     243.131
  H      862.472     173.386     242.641
  H      863.329     174.329     241.445

 3  4  5  6  7  8  9  10  11  12  13  23  28  29  30  31  32 0
 6-311+G(2d,p)
 ****
 33  34 0
 6-311+G(2d,p)
 ****
 1  2  14  15  16  17  18  19  20  21  22  24  25  26  27 0
 3-21G
 ****
 35  36  37  38  39  40  41  42  43  44  45 0
 3-21G
 ****


