%nproc=1
%NoSave
%Mem=1900MB
#P OB98/GEN NMR

erre ene a

0 1
  C      -78.258     -43.624    -103.729
  O      -78.162     -42.531    -104.618
  H      -78.110     -44.563    -104.269
  H      -77.481     -43.530    -102.967
  H      -79.235     -43.628    -103.238
  P      -79.198     -42.500    -105.842
  C      -81.710     -41.933    -106.133
  O      -80.579     -41.906    -105.273
  C      -82.988     -42.063    -105.307
  O      -82.893     -43.266    -104.504
  C      -83.264     -40.880    -104.363
  O      -84.539     -40.299    -104.657
  C      -83.329     -41.507    -102.979
  O      -84.361     -40.960    -102.160
  C      -83.564     -42.984    -103.269
  N      -83.953     -44.012     -98.294
  C      -84.817     -43.433     -99.157
  N      -84.696     -43.284    -100.492
  C      -83.551     -43.835    -100.929
  C      -82.585     -44.480    -100.176
  C      -82.811     -44.544     -98.791
  N      -81.906     -45.085     -97.904
  N      -81.542     -44.906    -100.976
  C      -81.853     -44.487    -102.187
  N      -83.049     -43.818    -102.203
  O      -79.528     -44.050    -106.083
  O      -78.692     -41.845    -107.083
  H      -85.207     -41.160    -102.605
  H      -79.457     -44.256    -107.034
  H      -85.722     -43.027     -98.715
  H      -81.236     -44.599    -103.069
  H      -84.628     -43.214    -103.402
  H      -82.368     -41.350    -102.473
  H      -82.486     -40.110    -104.411
  H      -83.831     -42.201    -105.996
  H      -81.637     -42.791    -106.809
  H      -82.095     -44.983     -96.921
  H      -81.007     -45.382     -98.255
  H      -81.726     -41.017    -106.731
  P      -84.527     -38.842    -105.338
  C      -83.070     -37.931    -107.294
  O      -83.861     -38.999    -106.790
  O      -83.405     -38.064    -104.501
  O      -85.843     -38.143    -105.298
  H      -83.583     -37.106    -104.514
  H      -82.701     -38.188    -108.265
  H      -82.246     -37.755    -106.634
  H      -83.668     -37.046    -107.363

 6  7  8  9  10  11  12  13  14  15  25  28  32  33  34  35 0
 6-311+G(2d,p)
 ****
 36  39  40 0
 6-311+G(2d,p)
 ****
 1  2  3  4  5  16  17  18  19  20  21  22  23  24 0
 3-21G
 ****
 26  27  29  30  31  37  38  41  42  43  44  45  46  47  48 0
 3-21G
 ****


