%nproc=1
%NoSave
%Mem=1900MB
#P OB98/GEN NMR

erre ene a

0 1
  C      -94.002    -517.059     -45.430
  O      -94.141    -517.154     -46.834
  H      -93.375    -517.883     -45.082
  H      -94.982    -517.132     -44.950
  H      -93.524    -516.112     -45.160
  P      -95.020    -516.015     -47.542
  C      -94.563    -513.456     -47.738
  O      -94.033    -514.772     -47.773
  C      -93.563    -512.461     -48.337
  O      -92.307    -512.558     -47.600
  C      -93.229    -512.729     -49.816
  O      -92.886    -511.472     -50.425
  C      -91.984    -513.594     -49.699
  O      -91.317    -513.691     -50.935
  C      -91.273    -512.862     -48.564
  N      -86.340    -514.190     -48.808
  C      -87.079    -513.335     -49.548
  N      -88.385    -513.024     -49.416
  C      -88.929    -513.682     -48.376
  C      -88.299    -514.577     -47.524
  C      -86.938    -514.831     -47.775
  N      -86.185    -515.706     -47.027
  N      -89.186    -515.052     -46.576
  C      -90.328    -514.454     -46.851
  N      -90.221    -513.625     -47.935
  O      -95.992    -515.519     -46.372
  O      -95.778    -516.449     -48.753
  H      -90.885    -512.840     -51.166
  H      -96.847    -515.985     -46.429
  H      -86.554    -512.840     -50.359
  H      -91.257    -514.590     -46.310
  H      -90.841    -511.914     -48.897
  H      -92.246    -514.615     -49.401
  H      -94.048    -513.192     -50.368
  H      -93.939    -511.441     -48.190
  H      -94.767    -513.193     -46.695
  H      -95.496    -513.421     -48.305
  H      -85.221    -515.844     -47.280
  H      -86.621    -516.204     -46.266
  P      -94.002    -510.685     -51.273
  C      -95.929    -508.986     -50.769
  O      -94.815    -509.720     -50.280
  O      -95.075    -511.839     -51.564
  O      -93.531    -510.067     -52.548
  H      -95.548    -511.642     -52.395
  H      -96.346    -508.401     -49.976
  H      -96.669    -509.665     -51.139
  H      -95.611    -508.340     -51.560

 6  7  8  9  10  11  12  13  14  15  25  28  32  33  34  35 0
 6-311+G(2d,p)
 ****
 36  37  40 0
 6-311+G(2d,p)
 ****
 1  2  3  4  5  16  17  18  19  20  21  22  23  24 0
 3-21G
 ****
 26  27  29  30  31  38  39 41  42  43  44  45  46  47  48 0
 3-21G
 ****


