%nproc=1
%NoSave
%Mem=1900MB
#P OB98/GEN NMR

erre ene a

0 1
  C      -31.149     559.258     531.654
  O      -31.304     560.459     530.892
  P      -31.478     561.813     531.745
  C      -29.688     562.601     533.456
  O      -30.007     562.371     532.094
  C      -28.172     562.757     533.638
  O      -27.470     561.512     533.465
  C      -27.545     563.730     532.651
  O      -27.766     565.063     533.076
  C      -26.075     563.319     532.697
  O      -25.392     563.946     533.807
  C      -26.157     561.798     532.911
  N      -22.728     559.864     529.715
  C      -22.560     560.763     530.756
  N      -21.303     561.179     530.991
  N      -23.548     561.199     531.489
  C      -24.754     560.691     531.135
  C      -25.035     559.783     530.149
  C      -23.935     559.305     529.339
  O      -24.031     558.504     528.409
  N      -26.367     559.454     530.127
  C      -26.904     560.272     531.028
  N      -25.959     560.991     531.712
  O      -32.040     561.298     533.147
  O      -32.399     562.804     531.105
  H      -25.416     564.911     533.691
  H      -32.973     561.574     533.257
  H      -21.927     559.568     529.167
  H      -27.964     560.349     531.238
  H      -25.414     561.452     533.641
  H      -25.532     563.625     531.796
  H      -20.492     560.882     530.468
  H      -27.957     563.561     531.641
  H      -21.161     561.830     531.758
  H      -27.999     563.110     534.666
  H      -30.047     561.773     534.068
  H      -30.217     563.501     533.799
  P      -29.257     565.651     532.973
  C      -30.796     566.793     534.735
  O      -29.811     565.805     534.468
  O      -30.093     564.411     532.379
  O      -29.394     566.859     532.111
  H      -30.697     564.739     531.687
  H      -31.416     566.456     535.568
  H      -31.430     566.970     533.863
  H      -30.295     567.731     535.017
  H      -31.042     558.426     530.990
  H      -32.011     559.113     532.271
  H      -30.278     559.337     532.270

 3  4  5  6  7  8  9  10  11  12  23  26  30  31 0
 6-311+G(2d,p)
 ****
 33  35  36  37  38 0
 6-311+G(2d,p)
 ****
 1  2  13  14  15  16  17  18  19  20  21  22  24  25 0
 3-21G
 ****
 27  28  29  32  34  39  40  41  42  43  44  45  46  47  48  49 0
 3-21G
 ****


