%nproc=1
%NoSave
%Mem=1900MB
#P OB98/GEN NMR

erre ene a

0 1
  C     -198.078    -830.387    -338.221
  O     -198.201    -829.090    -338.760
  H     -198.287    -830.338    -337.150
  H     -197.063    -830.760    -338.358
  H     -198.793    -831.069    -338.686
  P     -197.942    -828.888    -340.330
  C     -200.432    -828.611    -340.990
  O     -199.282    -829.440    -341.027
  C     -201.692    -829.448    -341.179
  O     -201.910    -830.330    -340.053
  C     -202.984    -828.647    -341.290
  O     -203.140    -827.977    -342.529
  C     -204.001    -829.760    -341.103
  O     -204.097    -830.532    -342.312
  C     -203.343    -830.572    -339.966
  N     -203.843    -830.190    -338.640
  C     -204.839    -831.009    -338.087
  O     -205.267    -831.987    -338.708
  N     -205.355    -830.683    -336.862
  C     -204.942    -829.622    -336.240
  N     -205.489    -829.342    -335.032
  C     -203.904    -828.721    -336.797
  C     -203.408    -829.063    -337.982
  O     -196.662    -829.449    -340.863
  O     -198.088    -827.306    -340.560
  H     -204.342    -829.917    -343.026
  H     -197.925    -827.126    -341.520
  H     -203.610    -827.832    -336.259
  H     -202.649    -828.445    -338.455
  H     -203.504    -831.648    -340.105
  H     -205.004    -829.395    -340.875
  H     -203.083    -827.942    -340.453
  H     -201.536    -830.085    -342.059
  H     -206.202    -829.973    -334.680
  H     -200.339    -827.861    -341.780
  H     -205.282    -828.494    -334.519
  H     -200.494    -828.101    -340.024
  P     -202.837    -826.397    -342.547
  C     -201.241    -826.402    -344.610
  O     -201.388    -826.228    -343.214
  O     -202.595    -826.052    -341.006
  O     -203.903    -825.549    -343.171
  H     -203.407    -825.674    -340.608
  H     -200.217    -826.254    -344.882
  H     -201.853    -825.691    -345.124
  H     -201.542    -827.393    -344.880

 6  7  8  9  10  11  12  13  14  15  16  26  30  31  32  33  35 0
 6-311+G(2d,p)
 ****
 37  38 0
 6-311+G(2d,p)
 ****
 1  2  3  4  5  17  18  19  20  21  22  23  24  25 0
 3-21G
 ****
 27  28  29  34  36  39  40  41  42  43  44  45  46 0
 3-21G
 ****


