%nproc=1
%NoSave
%Mem=1900MB
#P OB98/GEN NMR

erre ene a

0 1
  C     -159.585    -118.416    -107.099
  O     -158.217    -118.826    -107.158
  P     -157.956    -120.394    -107.383
  C     -157.744    -120.485    -109.968
  O     -157.078    -120.564    -108.716
  C     -156.839    -119.846    -111.023
  O     -156.560    -118.461    -110.739
  C     -155.483    -120.527    -111.148
  O     -155.604    -121.708    -111.924
  C     -154.654    -119.445    -111.828
  O     -154.839    -119.464    -113.258
  C     -155.229    -118.151    -111.230
  N     -151.709    -114.691    -110.078
  C     -152.168    -115.110    -111.312
  N     -151.631    -114.504    -112.391
  N     -153.075    -116.039    -111.472
  C     -153.525    -116.558    -110.305
  C     -153.168    -116.206    -109.024
  C     -152.162    -115.178    -108.860
  O     -151.738    -114.758    -107.790
  N     -153.887    -116.911    -108.091
  C     -154.580    -117.774    -108.810
  N     -154.446    -117.558    -110.160
  O     -159.398    -120.952    -107.795
  O     -157.423    -121.088    -106.175
  H     -155.787    -119.353    -113.457
  H     -159.757    -121.505    -107.075
  H     -151.004    -113.978    -110.014
  H     -155.211    -118.551    -108.407
  H     -155.342    -117.373    -111.993
  H     -153.584    -119.586    -111.656
  H     -150.932    -113.778    -112.341
  H     -155.076    -120.744    -110.153
  H     -151.960    -114.791    -113.305
  H     -157.368    -119.893    -111.983
  H     -158.662    -119.903    -109.868
  H     -158.043    -121.494    -110.272
  P     -154.715    -122.974    -111.503
  C     -156.705    -124.563    -111.001
  O     -155.576    -124.287    -111.808
  O     -154.696    -122.888    -109.903
  O     -153.329    -122.971    -112.059
  H     -153.791    -123.055    -109.578
  H     -157.438    -125.112    -111.599
  H     -157.167    -123.647    -110.626
  H     -156.398    -125.185    -110.157
  H     -159.634    -117.358    -106.947
  H     -160.072    -118.916    -106.288
  H     -160.073    -118.667    -108.018

 3  4  5  6  7  8  9  10  11  12  23  26  30  31 0
 6-311+G(2d,p)
 ****
 33  35  36  37  38 0
 6-311+G(2d,p)
 ****
 1  2  13  14  15  16  17  18  19  20  21  22  24  25 0
 3-21G
 ****
 27  28  29  32  34  39  40  41  42  43  44  45  46  47  48  49 0
 3-21G
 ****


