%nproc=1
%NoSave
%Mem=1900MB
#P OB98/GEN NMR

erre ene a

0 1
  C       50.553     166.860     -12.915
  O       49.170     166.573     -12.888
  P       48.473     165.837     -14.128
  C       46.627     167.619     -13.961
  O       47.474     166.876     -14.832
  C       46.642     169.099     -14.336
  O       47.999     169.590     -14.440
  C       46.007     169.403     -15.684
  O       44.597     169.298     -15.643
  C       46.543     170.805     -15.947
  O       45.776     171.787     -15.235
  C       47.968     170.707     -15.362
  N       48.985     170.575     -16.393
  C       49.527     171.770     -16.879
  O       49.090     172.855     -16.497
  N       50.548     171.699     -17.795
  C       50.907     170.549     -18.273
  N       51.962     170.537     -19.132
  C       50.245     169.279     -17.906
  C       49.318     169.363     -16.954
  O       47.876     164.504     -13.824
  O       49.650     165.697     -15.207
  H       49.682     164.772     -15.519
  H       46.306     172.609     -15.239
  H       50.537     168.356     -18.385
  H       48.796     168.479     -16.603
  H       48.190     171.596     -14.758
  H       46.507     171.073     -17.008
  H       46.403     168.714     -16.441
  H       46.135     169.657     -13.537
  H       52.402     171.423     -19.345
  H       46.987     167.495     -12.935
  H       52.517     169.701     -19.302
  H       45.611     167.217     -14.019
  P       43.943     168.028     -16.373
  C       43.307     169.662     -18.279
  O       43.805     168.387     -17.928
  O       42.431     168.038     -15.845
  O       44.614     166.727     -16.078
  H       42.119     167.122     -15.725
  H       43.596     169.879     -19.312
  H       43.710     170.443     -17.629
  H       42.215     169.658     -18.214
  H       50.833     167.350     -12.006
  H       50.768     167.499     -13.746
  H       51.105     165.948     -13.014

 3  4  5  6  7  8  9  10  11  12  13  24  27  28  29  30  32 0
 6-311+G(2d,p)
 ****
 34  35 0
 6-311+G(2d,p)
 ****
 1  2  14  15  16  17  18  19  20  21  22  23  25  26 0
 3-21G
 ****
 31  33  36  37  38  39  40  41  42  43  44  45  46 0
 3-21G
 ****


