%nproc=1
%NoSave
%Mem=1900MB
#P OB98/GEN NMR

erre ene a

0 1
  C      -19.294     330.557     -26.173
  O      -18.597     330.779     -24.962
  H      -20.055     329.791     -26.006
  H      -18.604     330.204     -26.945
  H      -19.783     331.479     -26.505
  P      -17.440     331.892     -24.991
  C      -15.098     332.077     -26.111
  O      -16.210     331.244     -25.794
  C      -13.909     331.210     -26.515
  O      -13.493     330.397     -25.392
  C      -14.216     330.224     -27.636
  O      -14.216     330.841     -28.916
  C      -13.090     329.212     -27.454
  O      -11.885     329.652     -28.087
  C      -12.915     329.181     -25.933
  N      -12.182     324.335     -24.502
  C      -11.337     325.269     -24.995
  N      -11.608     326.547     -25.335
  C      -12.901     326.835     -25.101
  C      -13.877     325.987     -24.600
  C      -13.477     324.677     -24.289
  N      -14.339     323.719     -23.812
  N      -15.098     326.635     -24.537
  C      -14.860     327.853     -24.985
  N      -13.547     328.021     -25.331
  O      -16.933     331.925     -23.473
  O      -17.871     333.242     -25.464
  H      -12.081     329.710     -29.040
  H      -17.331     332.688     -23.012
  H      -10.313     324.946     -25.141
  H      -15.599     328.641     -25.080
  H      -11.859     329.167     -25.637
  H      -13.364     328.247     -27.884
  H      -15.177     329.727     -27.448
  H      -13.072     331.866     -26.790
  H      -14.828     332.673     -25.233
  H      -15.381     332.751     -26.927
  H      -13.996     322.785     -23.677
  H      -15.330     323.930     -23.758
  P      -15.600     330.887     -29.718
  C      -17.050     329.158     -31.031
  O      -15.850     329.422     -30.325
  O      -15.267     331.780     -31.004
  O      -16.752     331.432     -28.943
  H      -16.048     332.319     -31.244
  H      -17.052     328.141     -31.364
  H      -17.117     329.810     -31.877
  H      -17.887     329.324     -30.386

 6  7  8  9  10  11  12  13  14  15  25  28  32  33  34  35 0
 6-311+G(2d,p)
 ****
 36  37  40 0
 6-311+G(2d,p)
 ****
 1  2  3  4  5  16  17  18  19  20  21  22  23  24 0
 3-21G
 ****
 26  27  29  30  31  38  39 41  42  43  44  45  46  47  48 0
 3-21G
 ****


