%nproc=1
%NoSave
%Mem=1900MB
#P OB98/GEN NMR

erre ene a

0 1
  C      486.469    -105.989     -87.575
  O      486.880    -107.336     -87.789
  P      487.954    -107.977     -86.788
  C      486.440    -109.945     -85.876
  O      487.206    -108.786     -85.635
  C      485.922    -110.499     -84.540
  O      485.132    -109.502     -83.857
  C      485.040    -111.735     -84.698
  O      485.803    -112.928     -84.746
  C      484.143    -111.638     -83.482
  O      484.843    -112.081     -82.306
  C      483.885    -110.113     -83.418
  N      482.777    -109.560     -84.226
  C      481.501    -109.465     -83.677
  O      481.209    -109.823     -82.538
  N      480.537    -108.924     -84.486
  C      480.742    -108.321     -85.692
  O      479.850    -107.799     -86.348
  C      482.131    -108.315     -86.160
  C      483.064    -108.931     -85.428
  O      488.568    -106.712     -86.031
  O      489.011    -108.795     -87.461
  H      485.691    -111.607     -82.280
  H      489.515    -106.613     -86.247
  H      479.593    -108.914     -84.133
  H      482.349    -107.805     -87.091
  H      484.097    -108.930     -85.768
  H      483.710    -109.795     -82.383
  H      483.275    -112.285     -83.581
  H      484.414    -111.640     -85.590
  H      486.786    -110.736     -83.906
  H      487.034    -110.704     -86.390
  H      485.601    -109.700     -86.536
  P      486.441    -113.412     -86.132
  C      488.815    -113.007     -85.251
  O      487.859    -112.670     -86.238
  O      485.562    -113.302     -87.331
  O      486.867    -114.930     -85.837
  H      486.170    -115.553     -86.147
  H      489.775    -112.561     -85.526
  H      488.932    -114.092     -85.187
  H      488.504    -112.607     -84.282
  H      485.755    -105.711     -88.321
  H      487.319    -105.342     -87.637
  H      486.024    -105.901     -86.606

 3  4  5  6  7  8  9  10  11  12  13  23  28  29  30  31  32 0
 6-311+G(2d,p)
 ****
 33  34 0
 6-311+G(2d,p)
 ****
 1  2  14  15  16  17  18  19  20  21  22  24  25  26  27 0
 3-21G
 ****
 35  36  37  38  39  40  41  42  43  44  45 0
 3-21G
 ****


