%nproc=1
%NoSave
%Mem=1900MB
#P OB98/GEN NMR

erre ene a

0 1
  C     -419.201    -827.112    -263.652
  O     -419.738    -827.153    -262.344
  H     -419.212    -826.077    -264.010
  H     -419.807    -827.719    -264.325
  H     -418.165    -827.470    -263.657
  P     -419.711    -828.530    -261.535
  C     -419.233    -827.484    -259.227
  O     -420.163    -828.205    -260.027
  C     -419.918    -826.998    -257.953
  O     -420.802    -825.895    -258.244
  C     -420.780    -828.055    -257.266
  O     -419.972    -828.998    -256.581
  C     -421.643    -827.176    -256.377
  O     -420.932    -826.775    -255.196
  C     -421.896    -825.959    -257.299
  N     -423.195    -826.025    -257.990
  C     -424.294    -826.246    -257.182
  O     -424.230    -826.386    -255.954
  N     -425.504    -826.344    -257.825
  C     -425.687    -826.333    -259.181
  O     -426.736    -826.650    -259.729
  C     -424.482    -826.021    -259.973
  C     -423.312    -825.898    -259.351
  O     -418.454    -829.330    -261.653
  O     -420.970    -829.332    -262.120
  H     -420.662    -829.998    -262.767
  H     -420.596    -827.588    -254.780
  H     -426.310    -826.552    -257.253
  H     -424.590    -825.941    -261.062
  H     -422.414    -825.693    -259.927
  H     -421.862    -825.021    -256.716
  H     -422.556    -827.687    -256.041
  H     -421.413    -828.558    -258.005
  H     -419.133    -826.629    -257.267
  H     -418.868    -826.621    -259.797
  H     -418.387    -828.148    -258.989
  P     -420.547    -830.428    -256.165
  C     -418.308    -831.676    -256.050
  O     -419.420    -831.188    -255.311
  O     -421.124    -831.232    -257.280
  O     -421.672    -830.100    -255.058
  H     -422.518    -830.526    -255.322
  H     -417.624    -832.162    -255.386
  H     -417.816    -830.859    -256.535
  H     -418.648    -832.375    -256.786

 6  7  8  9  10  11  12  13  14  15  16  27  31  32  33  34  35 0
 6-311+G(2d,p)
 ****
 36  37 0
 6-311+G(2d,p)
 ****
 1  2  3  4  5  17  18  19  20  21  22  23  24  25 0
 3-21G
 ****
 26  28  29  30  38  39  40  41  42  43  44  45 0
 3-21G
 ****


