%nproc=1
%NoSave
%Mem=1900MB
#P OB98/GEN NMR

erre ene a

0 1
  C        7.082      -3.765      34.904
  O        7.028      -2.713      35.847
  H        6.638      -4.671      35.323
  H        6.513      -3.474      34.017
  H        8.118      -3.959      34.613
  P        7.776      -2.957      37.245
  C        5.795      -3.944      38.613
  O        6.631      -2.823      38.363
  C        4.515      -3.474      39.295
  O        3.549      -4.550      39.333
  C        4.712      -3.044      40.744
  O        5.192      -1.716      40.856
  C        3.292      -3.163      41.270
  O        2.512      -2.040      40.822
  C        2.815      -4.452      40.583
  N        1.812      -6.846      44.996
  C        1.369      -5.677      44.483
  N        1.667      -5.120      43.291
  C        2.508      -5.903      42.598
  C        3.038      -7.122      42.987
  C        2.661      -7.595      44.255
  N        3.134      -8.770      44.795
  N        3.882      -7.618      42.013
  C        3.845      -6.722      41.048
  N        3.055      -5.652      41.368
  O        8.639      -1.625      37.453
  O        8.590      -4.203      37.341
  H        1.595      -2.193      41.122
  H        9.303      -1.757      38.156
  H        0.688      -5.114      45.114
  H        4.378      -6.796      40.109
  H        1.746      -4.430      40.342
  H        3.245      -3.172      42.362
  H        5.354      -3.746      41.288
  H        4.084      -2.662      38.698
  H        6.325      -4.645      39.267
  H        2.924      -8.948      45.765
  H        3.876      -9.259      44.317
  H        5.559      -4.440      37.668
  P        6.334      -1.431      41.950
  C        4.463      -0.442      43.456
  O        5.766      -0.276      42.909
  O        7.464      -0.683      41.101
  O        6.855      -2.651      42.637
  H        8.353      -0.888      41.448
  H        4.224       0.401      44.069
  H        4.436      -1.333      44.048
  H        3.750      -0.519      42.662

 6  7  8  9  10  11  12  13  14  15  25  28  32  33  34  35 0
 6-311+G(2d,p)
 ****
 36  39  40 0
 6-311+G(2d,p)
 ****
 1  2  3  4  5  16  17  18  19  20  21  22  23  24 0
 3-21G
 ****
 26  27  29  30  31  37  38  41  42  43  44  45  46  47 0
 3-21G
 ****
 48 0
 3-21G
 ****


