%nproc=1
%NoSave
%Mem=1900MB
#P OB98/GEN NMR

erre ene a

0 1
  C      406.501     146.154    1343.634
  O      405.334     145.972    1342.871
  H      407.268     145.459    1343.260
  H      406.324     145.929    1344.684
  H      406.875     147.177    1343.524
  P      404.013     146.782    1343.294
  C      404.191     148.435    1341.300
  O      404.184     148.280    1342.715
  C      404.670     149.832    1340.913
  O      405.872     150.159    1341.681
  C      405.065     149.972    1339.415
  O      404.803     151.321    1339.031
  C      406.564     149.688    1339.473
  O      407.189     150.073    1338.268
  C      406.930     150.441    1340.753
  N      408.231     150.042    1341.266
  C      409.310     150.839    1340.879
  O      409.161     151.801    1340.141
  N      410.573     150.509    1341.325
  C      410.733     149.433    1342.037
  N      412.024     149.161    1342.440
  C      409.636     148.533    1342.426
  C      408.404     148.889    1342.021
  O      403.646     146.714    1344.754
  O      402.855     146.172    1342.380
  H      406.959     151.020    1338.054
  H      402.286     145.586    1342.915
  H      409.838     147.640    1343.004
  H      407.537     148.297    1342.245
  H      406.931     151.533    1340.584
  H      406.730     148.621    1339.591
  H      404.503     149.274    1338.771
  H      403.900     150.585    1341.183
  H      412.736     149.767    1342.137
  H      403.166     148.287    1340.947
  H      412.266     148.336    1342.979
  H      404.844     147.673    1340.828
  P      403.730     151.729    1337.905
  C      402.726     153.695    1339.284
  O      402.457     152.451    1338.616
  O      403.353     150.610    1336.982
  O      404.407     152.932    1337.089
  H      404.084     152.905    1336.156
  H      401.821     154.074    1339.711
  H      403.111     154.402    1338.579
  H      403.446     153.535    1340.059

 6  7  8  9  10  11  12  13  14  15  16  26  30  31  32  33  35 0
 6-311+G(2d,p)
 ****
 37  38 0
 6-311+G(2d,p)
 ****
 1  2  3  4  5  17  18  19  20  21  22  23  24  25 0
 3-21G
 ****
 27  28  29  34  36  39  40  41  42  43  44  45  46 0
 3-21G
 ****


