%nproc=1
%NoSave
%Mem=1900MB
#P OB98/GEN NMR

erre ene a

0 1
  C       28.036    -110.142     -80.529
  O       26.814    -110.865     -80.366
  P       26.956    -112.407     -79.946
  C       25.030    -112.449     -78.215
  O       25.514    -112.923     -79.462
  C       24.432    -111.044     -78.343
  O       23.714    -110.894     -79.604
  C       23.447    -110.687     -77.224
  O       23.596    -109.284     -76.967
  C       22.099    -110.930     -77.874
  O       21.050    -110.265     -77.175
  C       22.390    -110.412     -79.281
  N       18.824    -108.858     -82.498
  C       19.544    -108.147     -81.559
  N       19.317    -106.817     -81.502
  N       20.413    -108.693     -80.748
  C       20.565    -110.026     -80.946
  C       19.921    -110.836     -81.852
  C       18.940    -110.224     -82.722
  O       18.278    -110.806     -83.573
  N       20.369    -112.134     -81.772
  C       21.231    -112.109     -80.768
  N       21.425    -110.848     -80.273
  O       27.814    -112.340     -78.596
  O       27.621    -113.252     -80.984
  H       21.324    -109.330     -77.052
  H       28.747    -112.554     -78.779
  H       18.154    -108.390     -83.086
  H       21.757    -112.965     -80.381
  H       22.402    -109.315     -79.326
  H       21.874    -112.004     -77.891
  H       18.700    -106.327     -82.129
  H       23.583    -111.258     -76.301
  H       19.863    -106.267     -80.849
  H       25.258    -110.321     -78.351
  H       25.842    -112.426     -77.484
  H       24.292    -113.159     -77.825
  P       23.699    -108.809     -75.441
  C       25.363    -106.835     -75.584
  O       24.017    -107.242     -75.447
  O       25.075    -109.470     -74.948
  O       22.560    -109.243     -74.575
  H       24.976    -109.784     -74.031
  H       25.386    -105.838     -76.029
  H       25.933    -107.517     -76.221
  H       25.831    -106.791     -74.596
  H       27.818    -109.132     -80.807
  H       28.624    -110.604     -81.294
  H       28.580    -110.149     -79.608

 3  4  5  6  7  8  9  10  11  12  23  26  30  31 0
 6-311+G(2d,p)
 ****
 33  35  36  37  38 0
 6-311+G(2d,p)
 ****
 1  2  13  14  15  16  17  18  19  20  21  22  24  25 0
 3-21G
 ****
 27  28  29  32  34  39  40  41  42  43  44  45  46  47  48  49 0
 3-21G
 ****


