%nproc=1
%NoSave
%Mem=1900MB
#P OB98/GEN NMR

erre ene a

0 1
  C      -78.888    -227.250     -46.897
  O      -78.253    -228.461     -46.554
  H      -79.163    -226.725     -45.978
  H      -79.795    -227.457     -47.470
  H      -78.225    -226.606     -47.486
  P      -77.366    -229.208     -47.658
  C      -78.816    -231.345     -47.706
  O      -78.325    -230.234     -48.444
  C      -78.423    -232.677     -48.346
  O      -78.729    -233.774     -47.455
  C      -79.203    -232.954     -49.639
  O      -78.670    -232.356     -50.808
  C      -79.138    -234.474     -49.725
  O      -77.928    -234.905     -50.360
  C      -79.148    -234.901     -48.251
  N      -82.519    -238.743     -48.076
  C      -81.298    -238.683     -48.727
  N      -80.964    -239.762     -49.470
  N      -80.499    -237.653     -48.663
  C      -81.006    -236.612     -47.962
  C      -82.210    -236.543     -47.286
  C      -83.064    -237.720     -47.318
  O      -84.160    -237.818     -46.769
  N      -82.383    -235.324     -46.683
  C      -81.328    -234.625     -47.053
  N      -80.451    -235.373     -47.808
  O      -76.440    -230.198     -46.794
  O      -76.534    -228.314     -48.525
  H      -77.896    -234.524     -51.257
  H      -75.613    -230.380     -47.275
  H      -83.084    -239.577     -48.140
  H      -81.137    -233.592     -46.784
  H      -78.435    -235.709     -48.055
  H      -79.963    -234.883     -50.312
  H      -81.598    -240.529     -49.645
  H      -80.254    -232.661     -49.515
  H      -80.220    -239.652     -50.164
  H      -77.340    -232.692     -48.517
  H      -79.904    -231.250     -47.681
  H      -78.463    -231.299     -46.672
  P      -79.558    -231.323     -51.652
  C      -79.547    -232.934     -53.697
  O      -80.306    -232.167     -52.788
  O      -78.453    -230.486     -52.459
  O      -80.438    -230.431     -50.833
  H      -78.250    -229.656     -51.997
  H      -80.204    -233.429     -54.382
  H      -78.977    -233.663     -53.160
  H      -78.884    -232.292     -54.239

 6  7  8  9  10  11  12  13  14  15  26  29  33  34 0
 6-311+G(2d,p)
 ****
 36  38  39  40  41 0
 6-311+G(2d,p)
 ****
 1  2  3  4  5  16  17  18  19  20  21  22  23  24  25 0
 3-21G
 ****
 27  28  30  31  32  35  37  42  43  44  45  46  47 0
 3-21G
 ****
 48  49 0
 3-21G
 ****


