%nproc=1
%NoSave
%Mem=1900MB
#P OB98/GEN NMR

erre ene a

0 1
  C       -1.220    -315.814    -421.494
  O       -1.794    -314.576    -421.122
  H       -0.810    -316.320    -420.617
  H       -1.998    -316.445    -421.932
  H       -0.433    -315.658    -422.238
  P       -0.812    -313.492    -420.461
  C        0.324    -313.346    -418.130
  O       -0.764    -313.843    -418.897
  C       -0.123    -313.119    -416.690
  O       -0.939    -314.226    -416.242
  C        1.019    -313.014    -415.685
  O        1.601    -311.725    -415.670
  C        0.280    -313.301    -414.391
  O       -0.458    -312.134    -413.984
  C       -0.684    -314.415    -414.823
  N        0.509    -317.934    -411.300
  C        0.020    -316.680    -411.195
  N       -0.268    -315.806    -412.180
  C        0.003    -316.341    -413.380
  C        0.515    -317.599    -413.645
  C        0.766    -318.425    -412.540
  N        1.282    -319.697    -412.642
  N        0.693    -317.779    -415.008
  C        0.261    -316.657    -415.550
  N       -0.154    -315.754    -414.609
  O       -1.664    -312.137    -420.503
  O        0.523    -313.349    -421.109
  H       -1.093    -311.940    -414.702
  H       -1.070    -311.367    -420.435
  H       -0.166    -316.333    -410.182
  H        0.235    -316.452    -416.611
  H       -1.648    -314.361    -414.302
  H        0.943    -313.565    -413.567
  H        1.773    -313.795    -415.848
  H       -0.747    -312.216    -416.664
  H        0.662    -312.397    -418.557
  H        1.596    -320.127    -411.788
  H        1.612    -320.006    -413.543
  H        1.146    -314.067    -418.163
  P        3.096    -311.595    -415.092
  C        4.163    -311.830    -412.732
  O        2.967    -311.798    -413.506
  O        3.413    -310.037    -415.247
  O        4.107    -312.453    -415.778
  H        4.372    -309.884    -415.329
  H        3.917    -311.971    -411.700
  H        4.689    -310.906    -412.850
  H        4.781    -312.637    -413.064

 6  7  8  9  10  11  12  13  14  15  25  28  32  33  34  35 0
 6-311+G(2d,p)
 ****
 36  39  40 0
 6-311+G(2d,p)
 ****
 1  2  3  4  5  16  17  18  19  20  21  22  23  24 0
 3-21G
 ****
 26  27  29  30  31  37  38  41  42  43  44  45  46  47 0
 3-21G
 ****
 48 0
 3-21G
 ****


