%nproc=1
%NoSave
%Mem=1900MB
#P OB98/GEN NMR

erre ene a

0 1
  C     -218.702     203.246     225.349
  O     -217.731     203.932     226.113
  H     -218.363     202.219     225.190
  H     -218.832     203.728     224.377
  H     -219.654     203.225     225.885
  P     -217.985     205.493     226.376
  C     -215.830     206.340     225.195
  O     -217.251     206.290     225.194
  C     -215.354     207.328     224.133
  O     -215.643     206.807     222.815
  C     -216.043     208.683     224.193
  O     -215.518     209.522     225.208
  C     -215.756     209.213     222.798
  O     -214.466     209.838     222.723
  C     -215.810     207.938     221.936
  N     -217.047     207.858     221.164
  C     -216.997     208.413     219.887
  O     -215.991     208.938     219.418
  N     -218.165     208.377     219.177
  C     -219.361     207.900     219.626
  O     -220.386     207.950     218.956
  C     -219.357     207.343     220.988
  C     -218.219     207.351     221.687
  O     -217.082     205.799     227.660
  O     -219.414     205.870     226.592
  H     -217.651     205.910     228.445
  H     -213.816     209.139     222.933
  H     -218.150     208.772     218.249
  H     -220.291     206.957     221.378
  H     -218.193     206.955     222.698
  H     -214.967     207.916     221.234
  H     -216.492     209.958     222.506
  H     -217.126     208.554     224.308
  H     -214.266     207.444     224.227
  H     -215.426     205.349     224.964
  H     -215.485     206.638     226.190
  P     -216.335     210.855     225.574
  C     -214.523     212.602     224.806
  O     -215.784     211.989     224.584
  O     -215.695     211.210     226.997
  O     -217.811     210.656     225.574
  H     -214.788     210.871     227.080
  H     -214.339     213.327     224.041
  H     -213.755     211.857     224.783
  H     -214.524     213.084     225.761

 6  7  8  9  10  11  12  13  14  15  16  27  31  32  33  34  35 0
 6-311+G(2d,p)
 ****
 36  37 0
 6-311+G(2d,p)
 ****
 1  2  3  4  5  17  18  19  20  21  22  23  24  25 0
 3-21G
 ****
 26  28  29  30  38  39  40  41  42  43  44  45 0
 3-21G
 ****


