%nproc=1
%NoSave
%Mem=1900MB
#P OB98/GEN NMR

erre ene a

0 1
  C      160.955      88.558     206.790
  O      161.499      89.078     205.588
  P      161.317      88.301     204.194
  C      163.524      87.627     203.058
  O      162.592      87.331     204.091
  C      164.680      88.457     203.616
  O      165.148      87.831     204.834
  C      165.917      88.565     202.722
  O      165.845      89.587     201.735
  C      166.978      88.936     203.750
  O      166.878      90.336     204.072
  C      166.570      88.087     204.958
  N      170.683      85.688     206.838
  C      170.225      86.950     206.987
  N      169.130      87.521     206.436
  C      168.455      86.627     205.695
  C      168.793      85.303     205.457
  C      169.968      84.832     206.069
  N      170.418      83.536     205.931
  N      167.862      84.704     204.626
  C      166.973      85.647     204.386
  N      167.283      86.823     205.017
  O      161.076      89.185     203.022
  O      160.114      87.283     204.464
  H      167.735      90.599     204.467
  H      159.755      86.957     203.614
  H      170.821      87.595     207.630
  H      166.099      85.526     203.762
  H      166.725      88.605     205.910
  H      167.999      88.766     203.393
  H      166.173      87.599     202.273
  H      164.298      89.456     203.872
  H      163.008      88.205     202.283
  H      171.195      83.254     206.509
  H      169.804      82.860     205.495
  H      163.886      86.697     202.610
  P      166.900      89.506     200.521
  C      168.867      91.227     200.674
  O      168.294      90.018     201.123
  O      166.453      90.182     199.271
  O      167.123      87.928     200.353
  H      167.579      87.492     201.090
  H      169.721      91.473     201.315
  H      168.144      92.045     200.728
  H      169.221      91.114     199.645
  H      161.184      89.218     207.600
  H      161.377      87.594     206.985
  H      159.893      88.469     206.692

 3  4  5  6  7  8  9  10  11  12  22  25  29  30  31  32 0
 6-311+G(2d,p)
 ****
 33  36  37 0
 6-311+G(2d,p)
 ****
 1  2  13  14  15  16  17  18  19  20  21  23  24  26 0
 3-21G
 ****
 27  28  34  35  38  39  40  41  42  43  44  45  46  47  48 0
 3-21G
 ****


