%nproc=1
%NoSave
%Mem=1900MB
#P OB98/GEN NMR

erre ene a

0 1
  C      190.872    -898.310     107.130
  O      190.856    -896.900     107.145
  H      189.904    -898.670     106.767
  H      191.027    -898.690     108.146
  H      191.658    -898.690     106.471
  P      192.247    -896.110     107.189
  C      191.911    -894.880     104.938
  O      192.701    -895.810     105.675
  C      192.050    -895.100     103.430
  O      191.427    -896.340     103.060
  C      191.352    -893.990     102.621
  O      192.160    -892.850     102.372
  C      191.021    -894.730     101.325
  O      192.105    -894.640     100.386
  C      190.804    -896.180     101.774
  N      187.002    -899.040      99.913
  C      188.278    -898.860      99.406
  N      188.550    -899.490      98.243
  N      189.181    -898.110      99.982
  C      188.728    -897.460     101.081
  C      187.487    -897.560     101.669
  C      186.513    -898.440     101.064
  O      185.379    -898.650     101.482
  N      187.376    -896.720     102.761
  C      188.518    -896.070     102.772
  N      189.402    -896.540     101.831
  O      193.296    -897.240     107.645
  O      192.300    -894.940     108.116
  H      192.246    -893.690     100.172
  H      194.012    -896.830     108.158
  H      186.366    -899.650      99.435
  H      188.780    -895.280     103.473
  H      191.292    -896.880     101.089
  H      190.149    -894.280     100.836
  H      187.868    -900.000      97.708
  H      190.411    -893.700     103.098
  H      189.402    -899.230      97.742
  H      193.111    -895.170     103.171
  H      192.272    -893.890     105.213
  H      190.861    -894.960     105.246
  P      191.566    -891.380     102.543
  C      193.884    -890.430     103.342
  O      192.496    -890.570     103.561
  O      190.225    -891.620     103.386
  O      191.303    -890.640     101.272
  H      189.451    -891.630     102.799
  H      194.314    -889.856     104.136
  H      194.049    -889.930     102.411
  H      194.340    -891.398     103.313

 6  7  8  9  10  11  12  13  14  15  26  29  33  34 0
 6-311+G(2d,p)
 ****
 36  38  39  40  41 0
 6-311+G(2d,p)
 ****
 1  2  3  4  5  16  17  18  19  20  21  22  23  24  25 0
 3-21G
 ****
 27  28  30  31  32  35  37  42  43  44  45  46  47 0
 3-21G
 ****
 48  49 0
 3-21G
 ****


