%nproc=1
%NoSave
%Mem=1900MB
#P OB98/GEN NMR

erre ene a

0 1
  C       53.402     252.429     430.597
  O       52.067     252.938     430.454
  P       50.816     252.382     431.293
  C       49.646     251.584     429.120
  O       49.539     252.347     430.318
  C       48.261     251.192     428.601
  O       47.598     250.314     429.541
  C       47.283     252.348     428.420
  O       47.593     253.144     427.291
  C       45.955     251.601     428.315
  O       45.714     251.141     426.975
  C       46.184     250.396     429.250
  N       45.400     250.467     430.475
  C       44.012     250.515     430.330
  O       43.506     250.574     429.211
  N       43.237     250.506     431.464
  C       43.796     250.562     432.631
  N       42.975     250.532     433.717
  C       45.256     250.653     432.821
  C       45.990     250.598     431.711
  O       50.575     253.107     432.575
  O       51.136     250.834     431.553
  H       50.678     250.538     432.364
  H       46.511     250.649     426.700
  H       45.682     250.737     433.812
  H       47.073     250.645     431.764
  H       45.944     249.460     428.727
  H       45.109     252.229     428.600
  H       47.283     252.965     429.325
  H       48.394     250.652     427.651
  H       41.980     250.458     433.547
  H       50.211     250.671     429.345
  H       43.310     250.544     434.667
  H       50.197     252.159     428.373
  P       48.426     254.492     427.558
  C       46.233     255.870     427.434
  O       47.563     255.716     426.990
  O       49.653     254.381     426.536
  O       48.900     254.654     428.966
  H       50.465     254.720     426.961
  H       45.963     256.931     427.373
  H       46.106     255.530     428.465
  H       45.566     255.302     426.779
  H       54.057     252.956     429.935
  H       53.414     251.387     430.356
  H       53.729     252.565     431.607

 3  4  5  6  7  8  9  10  11  12  13  24  27  28  29  30  32 0
 6-311+G(2d,p)
 ****
 34  35 0
 6-311+G(2d,p)
 ****
 1  2  14  15  16  17  18  19  20  21  22  23  25  26 0
 3-21G
 ****
 31  33  36  37  38  39  40  41  42  43  44  45  46 0
 3-21G
 ****


