%nproc=1
%NoSave
%Mem=1900MB
#P OB98/GEN NMR

erre ene a

0 1
  C     -428.125      64.961     299.209
  O     -427.796      64.262     300.397
  H     -428.907      64.408     298.685
  H     -427.244      65.031     298.562
  H     -428.492      65.962     299.448
  P     -426.832      65.020     301.428
  C     -427.208      62.970     303.026
  O     -426.303      63.925     302.482
  C     -426.439      61.899     303.804
  O     -425.666      61.081     302.907
  C     -425.408      62.452     304.777
  O     -425.995      63.044     305.915
  C     -424.607      61.195     305.082
  O     -425.219      60.416     306.110
  C     -424.648      60.441     303.722
  N     -423.348      60.420     303.074
  C     -422.844      59.142     302.782
  O     -423.512      58.148     303.051
  N     -421.599      59.043     302.226
  C     -420.904      60.115     302.009
  N     -419.651      59.942     301.488
  C     -421.390      61.476     302.306
  C     -422.615      61.553     302.837
  O     -427.865      65.888     302.291
  O     -425.742      65.817     300.795
  H     -426.059      60.074     305.734
  H     -428.626      65.380     302.622
  H     -420.771      62.345     302.093
  H     -423.048      62.518     303.079
  H     -424.974      59.407     303.873
  H     -423.597      61.434     305.417
  H     -424.754      63.168     304.256
  H     -427.174      61.259     304.320
  H     -419.342      58.987     301.349
  H     -427.812      62.509     302.231
  H     -418.995      60.688     301.347
  H     -427.899      63.504     303.689
  P     -425.535      64.474     306.449
  C     -427.853      65.479     305.893
  O     -426.867      65.260     306.906
  O     -424.666      65.251     305.510
  O     -424.847      64.148     307.852
  H     -425.425      63.713     308.496
  H     -428.685      66.006     306.313
  H     -428.185      64.537     305.509
  H     -427.427      66.058     305.100

 6  7  8  9  10  11  12  13  14  15  16  26  30  31  32  33  35 0
 6-311+G(2d,p)
 ****
 37  38 0
 6-311+G(2d,p)
 ****
 1  2  3  4  5  17  18  19  20  21  22  23  24  25 0
 3-21G
 ****
 27  28  29  34  36  39  40  41  42  43  44  45  46 0
 3-21G
 ****


