%nproc=1
%NoSave
%Mem=1900MB
#P OB98/GEN NMR

erre ene a

0 1
  C     -134.469    -250.752     135.738
  O     -134.774    -250.353     134.416
  H     -134.658    -249.912     136.412
  H     -133.414    -251.033     135.813
  H     -135.101    -251.593     136.034
  P     -134.499    -251.437     133.266
  C     -132.304    -250.319     132.460
  O     -132.909    -251.465     133.041
  C     -131.453    -250.717     131.257
  O     -130.498    -251.736     131.621
  C     -132.250    -251.262     130.076
  O     -132.763    -250.209     129.279
  C     -131.188    -252.082     129.357
  O     -130.336    -251.235     128.557
  C     -130.404    -252.691     130.529
  N     -131.220    -257.467     129.109
  C     -130.800    -256.377     128.372
  N     -130.591    -256.581     127.052
  N     -130.611    -255.187     128.878
  C     -130.914    -255.115     130.194
  C     -131.341    -256.119     131.034
  C     -131.493    -257.443     130.471
  O     -131.781    -258.465     131.088
  N     -131.523    -255.654     132.313
  C     -131.242    -254.369     132.236
  N     -130.871    -253.991     130.972
  O     -135.046    -250.721     131.940
  O     -135.149    -252.765     133.468
  H     -129.861    -251.784     127.908
  H     -135.471    -251.393     131.374
  H     -131.318    -258.365     128.673
  H     -131.280    -253.674     133.066
  H     -129.340    -252.806     130.291
  H     -131.634    -252.806     128.672
  H     -130.990    -257.370     126.563
  H     -133.053    -251.928     130.417
  H     -130.356    -255.765     126.502
  H     -130.877    -249.832     130.954
  H     -131.670    -249.836     133.210
  H     -133.084    -249.620     132.145
  P     -134.087    -250.482     128.422
  C     -132.690    -251.553     126.512
  O     -133.782    -251.692     127.411
  O     -134.164    -249.202     127.463
  O     -135.334    -250.621     129.228
  H     -134.863    -248.598     127.772
  H     -132.612    -252.432     125.907
  H     -131.785    -251.421     127.068
  H     -132.851    -250.701     125.885

 6  7  8  9  10  11  12  13  14  15  26  29  33  34 0
 6-311+G(2d,p)
 ****
 36  38  39  40  41 0
 6-311+G(2d,p)
 ****
 1  2  3  4  5  16  17  18  19  20  21  22  23  24  25 0
 3-21G
 ****
 27  28  30  31  32  35  37  42  43  44  45  46  47 0
 3-21G
 ****
 48  49 0
 3-21G
 ****


