%nproc=1
%NoSave
%Mem=1900MB
#P OB98/GEN NMR

erre ene a

0 1
  C     -111.985     198.035      92.613
  O     -112.731     198.579      91.543
  P     -114.126     197.937      91.083
  C     -112.837     195.850      90.304
  O     -113.901     196.346      91.103
  C     -113.310     194.730      89.379
  O     -112.216     194.315      88.516
  C     -113.825     193.475      90.103
  O     -114.874     192.944      89.287
  C     -112.616     192.564      90.076
  O     -112.954     191.198      90.291
  C     -112.033     192.894      88.696
  N     -110.633     192.498      88.580
  C     -110.374     191.269      87.963
  O     -111.309     190.542      87.612
  N     -109.074     190.869      87.804
  C     -108.119     191.580      88.315
  N     -106.844     191.137      88.120
  C     -108.352     192.820      89.082
  C     -109.625     193.222      89.166
  O     -114.683     198.474      89.808
  O     -115.083     198.165      92.344
  H     -113.287     191.102      91.211
  H     -115.396     199.105      92.376
  H     -107.533     193.349      89.540
  H     -109.892     194.116      89.708
  H     -112.604     192.388      87.905
  H     -111.911     192.859      90.865
  H     -114.186     193.674      91.117
  H     -114.098     195.136      88.730
  H     -106.728     190.293      87.575
  H     -112.068     195.454      90.973
  H     -106.029     191.658      88.403
  H     -112.389     196.667      89.729
  P     -116.003     191.984      89.902
  C     -115.100     190.044      88.500
  O     -115.454     190.485      89.797
  O     -117.378     192.191      89.353
  O     -115.957     192.280      91.479
  H     -116.772     191.940      91.896
  H     -114.488     189.141      88.585
  H     -114.527     190.810      87.965
  H     -116.006     189.810      87.933
  H     -111.093     198.609      92.755
  H     -111.725     197.022      92.387
  H     -112.572     198.062      93.507

 3  4  5  6  7  8  9  10  11  12  13  23  27  28  29  30  32 0
 6-311+G(2d,p)
 ****
 34  35 0
 6-311+G(2d,p)
 ****
 1  2  14  15  16  17  18  19  20  21  22  24  25  26 0
 3-21G
 ****
 31  33  36  37  38  39  40  41  42  43  44  45  46 0
 3-21G
 ****


