%nproc=1
%NoSave
%Mem=1900MB
#P OB98/GEN NMR

erre ene a

0 1
  C      -88.284     301.758    -730.628
  O      -87.918     301.395    -731.941
  H      -87.521     302.423    -730.221
  H      -88.346     300.861    -730.000
  H      -89.245     302.283    -730.614
  P      -89.006     300.691    -732.887
  C      -88.890     302.530    -734.704
  O      -88.691     301.156    -734.387
  C      -88.302     302.861    -736.085
  O      -86.849     302.951    -735.975
  C      -88.603     301.750    -737.103
  O      -88.660     302.258    -738.436
  C      -87.388     300.840    -736.968
  O      -87.159     300.034    -738.127
  C      -86.269     301.853    -736.695
  N      -82.461     298.461    -736.588
  C      -83.507     298.581    -737.490
  N      -83.530     297.674    -738.498
  N      -84.444     299.483    -737.398
  C      -84.333     300.274    -736.302
  C      -83.360     300.236    -735.323
  C      -82.303     299.250    -735.453
  O      -81.379     299.091    -734.675
  N      -83.588     301.187    -734.354
  C      -84.686     301.795    -734.744
  N      -85.170     301.295    -735.933
  O      -90.360     301.488    -732.560
  O      -89.174     299.215    -732.688
  H      -86.919     300.636    -738.850
  H      -91.136     300.952    -732.790
  H      -81.751     297.766    -736.722
  H      -85.177     302.607    -734.208
  H      -85.870     302.243    -737.629
  H      -87.557     300.161    -736.136
  H      -82.942     296.857    -738.488
  H      -89.517     301.211    -736.881
  H      -84.430     297.553    -738.977
  H      -88.656     303.847    -736.415
  H      -88.387     303.104    -733.924
  H      -89.950     302.780    -734.664
  P      -89.247     301.309    -739.584
  C      -91.317     302.826    -740.240
  O      -90.125     302.168    -740.609
  O      -90.333     300.411    -738.820
  O      -88.214     300.468    -740.288
  H      -90.062     299.467    -738.823
  H      -91.723     303.332    -741.091
  H      -91.108     303.537    -739.468
  H      -92.024     302.108    -739.881

 6  7  8  9  10  11  12  13  14  15  26  29  33  34 0
 6-311+G(2d,p)
 ****
 36  38  39  40  41 0
 6-311+G(2d,p)
 ****
 1  2  3  4  5  16  17  18  19  20  21  22  23  24  25 0
 3-21G
 ****
 27  28  30  31  32  35  37  42  43  44  45  46  47 0
 3-21G
 ****
 48  49 0
 3-21G
 ****


