%nproc=1
%NoSave
%Mem=1900MB
#P OB98/GEN NMR

erre ene a

0 1
  C      -70.145    -869.735      96.506
  O      -70.122    -869.138      95.225
  P      -68.991    -868.061      94.864
  C      -68.521    -865.589      95.524
  O      -69.317    -866.738      95.701
  C      -68.543    -864.699      96.773
  O      -67.888    -865.417      97.847
  C      -67.779    -863.377      96.637
  O      -68.221    -862.489      97.654
  C      -66.361    -863.811      96.909
  O      -65.519    -862.718      97.284
  C      -66.535    -864.916      97.996
  N      -65.558    -866.002      97.830
  C      -64.305    -865.809      98.401
  O      -64.024    -864.815      99.075
  N      -63.357    -866.742      98.096
  C      -63.544    -867.798      97.259
  O      -62.627    -868.439      96.747
  C      -64.937    -868.096      96.882
  C      -65.876    -867.180      97.156
  O      -69.357    -867.668      93.346
  O      -67.591    -868.561      94.977
  H      -64.606    -863.079      97.381
  H      -68.816    -868.175      92.724
  H      -62.412    -866.529      98.384
  H      -65.148    -869.009      96.337
  H      -66.903    -867.328      96.854
  H      -66.421    -864.499      99.007
  H      -65.931    -864.252      96.002
  H      -67.883    -862.905      95.646
  H      -69.579    -864.507      97.069
  H      -68.874    -865.042      94.647
  H      -67.481    -865.883      95.311
  P      -68.261    -860.915      97.329
  C      -66.558    -858.996      97.354
  O      -66.753    -860.373      97.563
  O      -69.330    -860.128      97.989
  O      -68.395    -860.891      95.733
  H      -68.720    -860.015      95.441
  H      -65.731    -858.665      98.004
  H      -67.462    -858.403      97.594
  H      -66.274    -858.817      96.308
  H      -70.963    -870.422      96.565
  H      -70.263    -868.976      97.251
  H      -69.227    -870.258      96.672

 3  4  5  6  7  8  9  10  11  12  13  23  28  29  30  31  32 0
 6-311+G(2d,p)
 ****
 33  34 0
 6-311+G(2d,p)
 ****
 1  2  14  15  16  17  18  19  20  21  22  24  25  26  27 0
 3-21G
 ****
 35  36  37  38  39  40  41  42  43  44  45 0
 3-21G
 ****


