%nproc=1
%NoSave
%Mem=1900MB
#P OB98/GEN NMR

erre ene a

0 1
  C       84.442     -40.535    -589.537
  O       85.538     -41.065    -590.291
  P       86.412     -40.001    -591.129
  C       85.352     -40.176    -593.496
  O       85.488     -39.411    -592.300
  C       85.452     -39.298    -594.750
  O       84.266     -38.471    -594.840
  C       86.665     -38.367    -594.786
  O       87.138     -38.274    -596.135
  C       86.070     -37.011    -594.430
  O       86.872     -35.928    -594.893
  C       84.695     -37.119    -595.103
  N       82.752     -32.477    -595.628
  C       83.658     -33.156    -596.427
  N       84.114     -32.493    -597.510
  N       84.060     -34.379    -596.182
  C       83.489     -34.927    -595.089
  C       82.583     -34.359    -594.226
  C       82.172     -32.991    -594.475
  O       81.415     -32.319    -593.771
  N       82.238     -35.237    -593.216
  C       82.940     -36.322    -593.479
  N       83.725     -36.179    -594.593
  O       87.476     -40.921    -591.885
  O       87.085     -38.979    -590.266
  H       87.803     -36.152    -594.679
  H       88.385     -40.637    -591.674
  H       82.488     -31.529    -595.848
  H       82.936     -37.226    -592.876
  H       84.771     -36.983    -596.190
  H       85.982     -36.922    -593.337
  H       83.795     -31.584    -597.793
  H       87.485     -38.646    -594.121
  H       84.740     -32.984    -598.142
  H       85.456     -39.961    -595.633
  H       84.384     -40.690    -593.488
  H       86.138     -40.941    -593.508
  P       88.126     -39.453    -596.627
  C       89.539     -39.020    -594.472
  O       88.878     -39.965    -595.305
  O       89.253     -38.660    -597.437
  O       87.454     -40.506    -597.458
  H       89.654     -39.249    -598.112
  H       89.285     -37.982    -594.750
  H       90.617     -39.152    -594.586
  H       89.248     -39.196    -593.439
  H       83.941     -41.332    -589.027
  H       83.756     -40.048    -590.199
  H       84.809     -39.829    -588.822

 3  4  5  6  7  8  9  10  11  12  23  26  30  31  33  0
 6-311+G(2d,p)
 ****
 35  36  37  38 0
 6-311+G(2d,p)
 ****
 1  2  13  14  15  16  17  18  19  20  21  22  24  25  27  28  29 0
 3-21G
 ****
 32  34  39  40  41  42  43  44  45  46  47  48  49 0
 3-21G
 ****


