%nproc=1
%NoSave
%Mem=1900MB
#P OB98/GEN NMR

erre ene a

0 1
  C      285.624    -248.058     407.636
  O      284.515    -248.181     406.749
  P      283.740    -246.848     406.302
  C      284.778    -246.684     403.945
  O      284.643    -246.070     405.224
  C      284.940    -245.611     402.849
  O      286.058    -244.752     403.188
  C      285.250    -246.158     401.451
  O      284.152    -246.490     400.596
  C      285.953    -244.970     400.809
  O      284.975    -244.040     400.301
  C      286.710    -244.330     401.972
  N      291.447    -242.650     402.967
  C      290.237    -242.049     403.032
  N      289.025    -242.566     402.755
  C      289.128    -243.849     402.374
  C      290.290    -244.599     402.264
  C      291.496    -243.950     402.576
  N      292.723    -244.561     402.495
  N      290.005    -245.884     401.842
  C      288.694    -245.898     401.688
  N      288.118    -244.698     402.010
  O      283.195    -246.007     407.410
  O      282.551    -247.427     405.393
  H      284.510    -244.495     399.572
  H      281.747    -246.892     405.545
  H      290.248    -241.009     403.357
  H      288.124    -246.752     401.336
  H      286.668    -243.234     401.943
  H      286.580    -245.258     399.961
  H      285.937    -247.011     401.512
  H      284.029    -244.996     402.816
  H      283.900    -247.295     403.736
  H      293.546    -244.009     402.695
  H      292.786    -245.510     402.152
  H      285.638    -247.359     403.993
  P      283.597    -247.991     400.491
  C      282.474    -247.956     402.853
  O      283.454    -248.507     402.002
  O      284.383    -248.895     399.601
  O      282.083    -247.772     400.038
  H      281.513    -247.363     400.719
  H      282.395    -248.579     403.750
  H      281.499    -247.923     402.359
  H      282.766    -246.946     403.154
  H      286.029    -249.028     407.837
  H      285.300    -247.610     408.552
  H      286.375    -247.444     407.185

 3  4  5  6  7  8  9  10  11  12  22  25  29  30  31  32 0
 6-311+G(2d,p)
 ****
 33  36  37 0
 6-311+G(2d,p)
 ****
 1  2  13  14  15  16  17  18  19  20  21  23  24  26 0
 3-21G
 ****
 27  28  34  35  38  39  40  41  42  43  44  45  46  47  48 0
 3-21G
 ****


