%nproc=1
%NoSave
%Mem=1900MB
#P OB98/GEN NMR

erre ene a

0 1
  C      138.296     277.849     276.726
  O      139.086     278.472     275.727
  P      138.699     279.974     275.307
  C      140.334     280.982     277.057
  O      138.993     280.892     276.591
  C      140.886     282.401     276.896
  O      142.045     282.554     277.751
  C      141.303     282.747     275.465
  O      140.972     284.116     275.234
  C      142.812     282.600     275.492
  O      143.438     283.383     274.475
  C      143.129     283.034     276.930
  N      144.415     282.521     277.392
  C      145.409     283.465     277.673
  O      145.203     284.658     277.454
  N      146.622     283.029     278.143
  C      146.860     281.757     278.221
  N      148.077     281.375     278.697
  C      145.883     280.727     277.816
  C      144.687     281.173     277.435
  O      137.104     279.929     275.243
  O      139.309     280.437     274.023
  H      144.365     283.075     274.380
  H      136.765     280.542     274.562
  H      146.146     279.681     277.867
  H      143.901     280.490     277.148
  H      143.144     284.131     277.011
  H      143.089     281.551     275.337
  H      140.814     282.118     274.714
  H      140.126     283.106     277.249
  H      148.736     282.098     278.950
  H      140.960     280.302     276.473
  H      148.353     280.406     278.791
  H      140.377     280.667     278.105
  P      140.740     284.579     273.717
  C      138.926     282.854     273.148
  O      140.268     283.253     272.946
  O      142.249     284.732     273.194
  O      139.955     285.823     273.467
  H      142.249     285.077     272.283
  H      138.701     282.029     272.468
  H      138.241     283.679     272.935
  H      138.791     282.507     274.176
  H      138.663     276.860     276.905
  H      137.279     277.798     276.396
  H      138.350     278.419     277.630

 3  4  5  6  7  8  9  10  11  12  13  21  23  27  28  29  30  32 0
 6-311+G(2d,p)
 ****
 34  35 0
 6-311+G(2d,p)
 ****
 1  2  14  15  16  17  18  19  20  22  24  25  26 0
 3-21G
 ****
 31  33  36  37  38  39  40  41  42  43  44  45  46 0
 3-21G
 ****


