%nproc=1
%NoSave
%Mem=1900MB
#P OB98/GEN NMR

erre ene a

0 1
  C     -281.453    -138.264    -377.151
  O     -281.017    -137.523    -376.027
  H     -280.595    -138.785    -377.583
  H     -281.866    -137.582    -377.901
  H     -282.207    -139.002    -376.863
  P     -282.156    -136.951    -375.052
  C     -284.233    -135.420    -375.339
  O     -283.108    -136.025    -375.956
  C     -285.083    -134.696    -376.378
  O     -284.400    -133.517    -376.856
  C     -285.411    -135.528    -377.613
  O     -286.533    -136.374    -377.389
  C     -285.743    -134.436    -378.612
  O     -287.069    -133.925    -378.352
  C     -284.696    -133.365    -378.273
  N     -281.940    -131.417    -382.064
  C     -283.204    -131.076    -381.622
  N     -283.826    -130.079    -382.289
  N     -283.809    -131.660    -380.617
  C     -283.076    -132.656    -380.061
  C     -281.818    -133.089    -380.413
  C     -281.157    -132.424    -381.512
  O     -280.031    -132.679    -381.934
  N     -281.400    -134.125    -379.618
  C     -282.413    -134.331    -378.799
  N     -283.457    -133.468    -379.026
  O     -281.350    -135.900    -374.148
  O     -282.846    -137.970    -374.214
  H     -287.670    -134.691    -378.317
  H     -281.176    -136.302    -373.276
  H     -281.526    -130.942    -382.846
  H     -282.437    -135.082    -378.019
  H     -285.075    -132.348    -378.425
  H     -285.736    -134.790    -379.645
  H     -283.427    -129.604    -383.084
  H     -284.540    -136.098    -377.964
  H     -284.755    -129.815    -381.979
  H     -286.002    -134.359    -375.884
  H     -283.884    -134.701    -374.588
  H     -284.830    -136.196    -374.843
  P     -286.723    -137.653    -378.340
  C     -288.398    -138.331    -380.198
  O     -287.873    -137.284    -379.400
  O     -287.433    -138.709    -377.370
  O     -285.466    -138.205    -378.918
  H     -286.824    -139.444    -377.175
  H     -289.149    -137.939    -380.851
  H     -288.830    -139.079    -379.566
  H     -287.611    -138.766    -380.779

 6  7  8  9  10  11  12  13  14  15  26  29  33  34 0
 6-311+G(2d,p)
 ****
 36  38  39  40  41 0
 6-311+G(2d,p)
 ****
 1  2  3  4  5  16  17  18  19  20  21  22  23  24  25 0
 3-21G
 ****
 27  28  30  31  32  35  37  42  43  44  45  46  47 0
 3-21G
 ****
 48  49 0
 3-21G
 ****


