%nproc=1
%NoSave
%Mem=1900MB
#P OB98/GEN NMR

erre ene a

0 1
  C      976.395    -545.134     -27.092
  O      977.804    -545.155     -27.257
  H      976.076    -544.073     -27.061
  H      976.118    -545.597     -26.143
  H      975.884    -545.625     -27.919
  P      978.497    -546.581     -27.489
  C      980.771    -545.512     -26.859
  O      979.860    -546.564     -26.618
  C      981.811    -545.462     -25.748
  O      981.146    -545.266     -24.462
  C      982.628    -546.730     -25.602
  O      983.608    -546.822     -26.599
  C      983.180    -546.571     -24.178
  O      984.306    -545.718     -24.177
  C      981.958    -545.915     -23.469
  N      981.173    -546.891     -22.676
  C      981.852    -547.607     -21.719
  O      983.066    -547.503     -21.540
  N      981.091    -548.503     -21.000
  C      979.781    -548.777     -21.195
  O      979.158    -549.650     -20.574
  C      979.114    -548.006     -22.244
  C      979.832    -547.096     -22.931
  O      978.677    -547.014     -28.901
  O      977.574    -547.612     -26.673
  H      984.498    -545.505     -23.248
  H      977.041    -548.128     -27.297
  H      981.565    -549.036     -20.288
  H      978.066    -548.223     -22.451
  H      979.357    -546.528     -23.723
  H      982.324    -545.137     -22.769
  H      983.481    -547.538     -23.748
  H      981.945    -547.604     -25.619
  H      982.468    -544.585     -25.902
  H      980.212    -544.565     -26.869
  H      981.255    -545.669     -27.823
  P      984.476    -548.169     -26.763
  C      986.066    -546.912     -28.345
  O      985.975    -547.748     -27.219
  O      983.848    -549.250     -27.580
  O      984.683    -548.666     -25.233
  H      984.279    -549.548     -25.143
  H      987.095    -546.702     -28.551
  H      985.547    -545.997     -28.152
  H      985.626    -547.401     -29.189

 6  7  8  9  10  11  12  13  14  15  16  26  31  32  33  34  35 0
 6-311+G(2d,p)
 ****
 36  37 0
 6-311+G(2d,p)
 ****
 1  2  3  4  5  17  18  19  20  21  22  23  24  25 0
 3-21G
 ****
 27  28  29  30  38  39  40  41  42  43  44  45 0
 3-21G
 ****


