%nproc=1
%NoSave
%Mem=1900MB
#P OB98/GEN NMR

erre ene a

0 1
  C     -891.200    -628.128    -394.817
  O     -892.050    -627.002    -394.980
  H     -891.570    -628.942    -395.427
  H     -891.190    -628.437    -393.764
  H     -890.190    -627.883    -395.141
  P     -891.690    -625.690    -394.138
  C     -892.140    -624.526    -396.394
  O     -892.330    -624.482    -394.987
  C     -892.670    -623.250    -397.055
  O     -894.070    -623.090    -396.715
  C     -891.940    -621.986    -396.583
  O     -891.780    -621.088    -397.698
  C     -892.880    -621.380    -395.565
  O     -892.710    -619.969    -395.433
  C     -894.250    -621.797    -396.123
  N     -898.950    -620.287    -394.827
  C     -898.260    -620.200    -395.989
  N     -897.020    -620.649    -396.250
  C     -896.500    -621.268    -395.184
  C     -897.090    -621.442    -393.930
  C     -898.370    -620.928    -393.787
  N     -899.090    -620.980    -392.615
  N     -896.220    -622.116    -393.095
  C     -895.140    -622.346    -393.810
  N     -895.250    -621.850    -395.078
  O     -890.250    -625.522    -393.780
  O     -892.690    -625.813    -392.902
  H     -891.860    -619.814    -394.957
  H     -893.580    -626.075    -393.189
  H     -898.770    -619.690    -396.821
  H     -894.240    -622.870    -393.465
  H     -894.620    -621.114    -396.899
  H     -892.710    -621.831    -394.586
  H     -890.950    -622.198    -396.144
  H     -892.610    -623.361    -398.145
  H     -892.670    -625.394    -396.821
  H     -900.000    -620.574    -392.580
  H     -898.670    -621.461    -391.806
  H     -891.070    -624.642    -396.590
  P     -890.380    -621.038    -398.448
  C     -891.410    -620.858    -400.814
  O     -890.570    -620.265    -399.845
  O     -889.630    -622.331    -398.531
  O     -889.560    -619.967    -397.573
  H     -888.620    -620.260    -397.518
  H     -891.442    -620.238    -401.686
  H     -892.397    -620.963    -400.414
  H     -891.027    -621.822    -401.076

 6  7  8  9  10  11  12  13  14  15  25  28  32  33  34  35 0
 6-311+G(2d,p)
 ****
 36  39  40 0
 6-311+G(2d,p)
 ****
 1  2  3  4  5  16  17  18  19  20  21  22  23  24 0
 3-21G
 ****
 26  27  29  30  31  37  38  41  42  43  44  45  46  47 0
 3-21G
 ****
 48 0
 3-21G
 ****


