%nproc=1
%NoSave
%Mem=1900MB
#P OB98/GEN NMR

erre ene a

0 1
  C     -240.297     411.924    -893.940
  O     -240.714     411.230    -895.100
  H     -241.168     412.411    -893.500
  H     -239.552     412.681    -894.210
  H     -239.870     411.243    -893.200
  P     -239.718     410.161    -895.760
  C     -241.252     408.261    -896.580
  O     -240.373     408.722    -895.560
  C     -242.714     408.446    -896.170
  O     -242.962     409.873    -895.930
  C     -243.681     408.002    -897.290
  O     -244.941     407.577    -896.770
  C     -243.881     409.292    -898.090
  O     -245.088     409.294    -898.840
  C     -243.842     410.343    -896.970
  N     -245.177     414.810    -899.040
  C     -245.929     413.646    -898.920
  N     -247.179     413.682    -899.410
  N     -245.454     412.533    -898.390
  C     -244.158     412.631    -898.010
  C     -243.311     413.726    -898.100
  C     -243.845     414.943    -898.660
  O     -243.231     415.994    -898.820
  N     -242.059     413.414    -897.630
  C     -242.144     412.167    -897.250
  N     -243.405     411.642    -897.440
  O     -238.478     410.129    -894.740
  O     -239.265     410.471    -897.160
  H     -245.225     410.205    -899.170
  H     -237.678     409.797    -895.190
  H     -245.588     415.639    -899.440
  H     -241.322     411.589    -896.820
  H     -244.844     410.468    -896.530
  H     -243.048     409.387    -898.790
  H     -247.491     414.444    -900.000
  H     -243.261     407.223    -897.920
  H     -247.613     412.783    -899.610
  H     -242.906     407.934    -895.230
  H     -241.026     407.199    -896.730
  H     -241.036     408.769    -897.520
  P     -245.006     406.186    -895.980
  C     -246.302     406.929    -893.790
  O     -245.110     406.462    -894.410
  O     -243.530     405.576    -896.160
  O     -246.052     405.245    -896.480
  H     -243.558     404.745    -896.670
  H     -246.137     407.041    -892.739
  H     -247.090     406.224    -893.954
  H     -246.576     407.874    -894.211

 6  7  8  9  10  11  12  13  14  15  26  29  33  34 0
 6-311+G(2d,p)
 ****
 36  38  39  40  41 0
 6-311+G(2d,p)
 ****
 1  2  3  4  5  16  17  18  19  20  21  22  23  24  25 0
 3-21G
 ****
 27  28  30  31  32  35  37  42  43  44  45  46  47 0
 3-21G
 ****
 48  49 0
 3-21G
 ****


