%nproc=1
%NoSave
%Mem=1900MB
#P OB98/GEN NMR

erre ene a

0 1
  C      -83.463     127.556     -48.269
  O      -83.698     127.206     -46.922
  H      -82.835     128.450     -48.293
  H      -84.406     127.777     -48.782
  H      -82.938     126.747     -48.785
  P      -84.696     125.987     -46.614
  C      -87.277     125.741     -46.721
  O      -86.163     126.620     -46.809
  C      -88.390     126.204     -47.659
  O      -87.870     126.502     -48.972
  C      -89.489     125.174     -47.904
  O      -90.372     125.020     -46.804
  C      -90.172     125.798     -49.111
  O      -90.981     126.910     -48.686
  C      -88.948     126.287     -49.927
  N      -88.536     125.335     -50.959
  C      -88.428     125.829     -52.267
  O      -88.677     127.011     -52.507
  N      -88.080     124.965     -53.275
  C      -87.871     123.711     -53.006
  N      -87.577     122.889     -54.054
  C      -87.957     123.151     -51.645
  C      -88.293     124.006     -50.681
  O      -84.480     125.263     -45.325
  O      -84.581     125.041     -47.903
  H      -91.461     126.621     -47.887
  H      -85.174     124.264     -47.755
  H      -87.784     122.100     -51.481
  H      -88.391     123.665     -49.653
  H      -89.158     127.253     -50.400
  H      -90.826     125.104     -49.645
  H      -89.064     124.210     -48.202
  H      -88.796     127.141     -47.252
  H      -87.568     123.301     -54.979
  H      -87.618     125.725     -45.682
  H      -87.676     121.882     -53.975
  H      -86.979     124.727     -47.013
  P      -91.569     123.956     -46.946
  C      -93.802     123.890     -48.293
  O      -92.534     124.501     -48.107
  O      -92.414     124.194     -45.611
  O      -91.153     122.528     -47.116
  H      -92.143     123.571     -44.906
  H      -94.314     124.370     -49.101
  H      -94.379     123.987     -47.397
  H      -93.668     122.853     -48.521

 6  7  8  9  10  11  12  13  14  15  16  26  30  31  32  33  35 0
 6-311+G(2d,p)
 ****
 37  38 0
 6-311+G(2d,p)
 ****
 1  2  3  4  5  17  18  19  20  21  22  23  24  25 0
 3-21G
 ****
 27  28  29  34  36  39  40  41  42  43  44  45  46 0
 3-21G
 ****


