%nproc=1
%NoSave
%Mem=1900MB
#P OB98/GEN NMR

erre ene a

0 1
  C     -106.512    -896.880    -237.503
  O     -106.994    -895.900    -236.614
  H     -106.481    -897.840    -236.981
  H     -105.497    -896.630    -237.823
  H     -107.170    -896.970    -238.370
  P     -107.201    -894.420    -237.208
  C     -109.745    -894.410    -237.715
  O     -108.430    -894.510    -238.245
  C     -110.714    -893.870    -238.765
  O     -110.815    -894.830    -239.859
  C     -112.137    -893.610    -238.245
  O     -112.655    -892.460    -238.927
  C     -112.910    -894.820    -238.733
  O     -114.313    -894.590    -238.799
  C     -112.232    -895.060    -240.080
  N     -115.797    -898.000    -242.083
  C     -115.836    -896.680    -241.706
  N     -117.016    -896.030    -241.884
  N     -114.811    -896.040    -241.186
  C     -113.693    -896.800    -241.091
  C     -113.528    -898.120    -241.432
  C     -114.668    -898.820    -241.976
  O     -114.689    -900.000    -242.317
  N     -112.241    -898.540    -241.157
  C     -111.635    -897.460    -240.669
  N     -112.481    -896.380    -240.607
  O     -105.919    -894.250    -238.157
  O     -107.303    -893.330    -236.191
  H     -114.724    -895.380    -239.186
  H     -105.196    -893.800    -237.667
  H     -116.607    -898.450    -242.451
  H     -110.605    -897.410    -240.344
  H     -112.567    -894.340    -240.840
  H     -112.729    -895.690    -238.057
  H     -117.823    -896.440    -242.313
  H     -112.199    -893.450    -237.158
  H     -117.051    -895.040    -241.650
  H     -110.279    -892.950    -239.193
  H     -109.733    -893.740    -236.851
  H     -110.077    -895.400    -237.387
  P     -112.888    -891.120    -238.073
  C     -110.404    -890.340    -238.065
  O     -111.524    -890.780    -237.298
  O     -113.853    -891.610    -236.886
  O     -113.503    -890.000    -238.838
  H     -114.397    -890.880    -236.578
  H     -109.576    -890.154    -237.413
  H     -110.659    -889.439    -238.584
  H     -110.138    -891.096    -238.773

 6  7  8  9  10  11  12  13  14  15  26  29  33  34 0
 6-311+G(2d,p)
 ****
 36  38  39  40  41 0
 6-311+G(2d,p)
 ****
 1  2  3  4  5  16  17  18  19  20  21  22  23  24  25 0
 3-21G
 ****
 27  28  30  31  32  35  37  42  43  44  45  46  47 0
 3-21G
 ****
 48  49 0
 3-21G
 ****


