%nproc=1
%NoSave
%Mem=1900MB
#P OB98/GEN NMR

erre ene a

0 1
  C      196.439     -15.099      29.157
  O      196.985     -14.852      27.852
  P      197.172     -15.996      26.743
  C      197.297     -15.510      24.203
  O      197.912     -15.344      25.475
  C      197.859     -14.506      23.191
  O      197.295     -13.193      23.421
  C      199.363     -14.283      23.265
  O      200.098     -15.375      22.741
  C      199.510     -12.986      22.471
  O      199.582     -13.240      21.063
  C      198.200     -12.246      22.806
  N      198.404     -11.087      23.660
  C      199.190     -10.055      23.139
  O      199.739     -10.182      22.045
  N      199.344      -8.911      23.881
  C      198.851      -8.848      25.080
  N      199.021      -7.683      25.761
  C      198.132      -9.967      25.717
  C      197.944     -11.044      24.957
  O      195.910     -16.717      26.395
  O      198.262     -17.001      27.349
  H      198.133     -17.889      26.969
  H      200.474     -13.600      20.886
  H      197.773      -9.887      26.732
  H      197.412     -11.909      25.343
  H      197.701     -11.929      21.883
  H      200.415     -12.436      22.748
  H      199.652     -14.105      24.309
  H      197.570     -14.839      22.186
  H      199.510      -6.931      25.291
  H      196.220     -15.334      24.313
  H      198.658      -7.521      26.690
  H      197.449     -16.538      23.860
  P      200.816     -16.340      23.799
  C      202.368     -18.416      23.632
  O      201.844     -17.267      22.993
  O      199.654     -17.352      24.237
  O      201.398     -15.640      24.982
  H      199.724     -17.540      25.191
  H      202.621     -19.156      22.871
  H      201.649     -18.854      24.328
  H      203.279     -18.140      24.173
  H      196.415     -14.185      29.713
  H      197.050     -15.812      29.670
  H      195.445     -15.484      29.061

 3  4  5  6  7  8  9  10  11  12  13  24  27  28  29  30  32 0
 6-311+G(2d,p)
 ****
 34  35 0
 6-311+G(2d,p)
 ****
 1  2  14  15  16  17  18  19  20  21  22  23  25  26 0
 3-21G
 ****
 31  33  36  37  38  39  40  41  42  43  44  45  46 0
 3-21G
 ****


