%nproc=1
%NoSave
%Mem=1900MB
#P OB98/GEN NMR

erre ene a

0 1
  C       37.052     197.858      95.846
  O       36.124     197.069      96.610
  P       35.602     197.631      98.027
  C       34.277     199.671      97.055
  O       34.245     198.450      97.781
  C       33.753     200.817      97.922
  O       34.265     202.087      97.451
  C       32.240     200.972      97.918
  O       31.604     199.996      98.728
  C       32.077     202.393      98.439
  O       32.144     202.424      99.877
  C       33.303     203.101      97.821
  N       32.949     203.943      96.683
  C       33.449     205.241      96.694
  O       34.105     205.702      97.632
  N       33.138     206.010      95.606
  C       32.340     205.639      94.564
  O       32.081     206.384      93.623
  C       31.773     204.286      94.647
  C       32.092     203.516      95.690
  O       36.649     198.810      98.322
  O       35.582     196.647      99.147
  H       31.769     203.282     100.155
  H       36.734     198.934      99.286
  H       33.514     206.946      95.582
  H       31.112     203.963      93.850
  H       31.686     202.509      95.765
  H       33.801     203.720      98.579
  H       31.122     202.837      98.154
  H       31.864     200.922      96.889
  H       34.122     200.664      98.950
  H       33.645     199.578      96.163
  H       35.307     199.866      96.736
  P       30.276     199.313      98.131
  C       31.206     197.360      96.665
  O       30.664     197.774      97.899
  O       30.233     199.965      96.666
  O       29.064     199.570      98.966
  H       31.123     200.117      96.310
  H       31.825     198.143      96.213
  H       30.393     197.101      95.981
  H       31.822     196.474      96.832
  H       37.295     197.344      94.939
  H       37.943     198.013      96.418
  H       36.609     198.803      95.613

 3  4  5  6  7  8  9  10  11  12  13  23  28  29  30  31  32 0
 6-311+G(2d,p)
 ****
 33  34 0
 6-311+G(2d,p)
 ****
 1  2  14  15  16  17  18  19  20  21  22  24  25  26 0
 3-21G
 ****
 27  35  36  37  38  39  40  41  42  43  44  45 0
 3-21G
 ****


