%nproc=1
%NoSave
%Mem=1900MB
#P OB98/GEN NMR

erre ene a

0 1
  C      688.624     -91.357      23.157
  O      689.430     -90.594      22.280
  P      691.017     -90.591      22.539
  C      691.299     -88.035      22.940
  O      691.298     -89.341      23.509
  C      691.711     -87.005      23.990
  O      690.785     -87.015      25.088
  C      693.079     -87.271      24.609
  O      694.113     -86.877      23.728
  C      693.000     -86.434      25.880
  O      693.388     -85.077      25.637
  C      691.502     -86.530      26.251
  N      691.256     -87.351      27.415
  C      690.729     -86.693      28.531
  O      690.510     -85.477      28.496
  N      690.490     -87.421      29.668
  C      690.762     -88.691      29.705
  N      690.498     -89.361      30.853
  C      691.344     -89.425      28.549
  C      691.560     -88.696      27.452
  O      691.618     -90.123      21.140
  O      691.574     -91.908      22.994
  H      693.089     -84.567      26.423
  H      692.523     -90.461      21.015
  H      691.550     -90.476      28.624
  H      691.979     -89.146      26.563
  H      691.098     -85.521      26.455
  H      693.669     -86.822      26.666
  H      693.188     -88.329      24.869
  H      691.690     -86.010      23.520
  H      690.121     -88.828      31.627
  H      690.298     -87.788      22.585
  H      690.653     -90.351      30.964
  H      691.988     -88.025      22.086
  P      695.624     -87.216      24.149
  C      696.349     -84.803      23.700
  O      696.231     -85.837      24.659
  O      696.331     -87.386      22.709
  O      695.835     -88.404      25.013
  H      697.250     -87.713      22.843
  H      696.626     -83.872      24.204
  H      695.389     -84.646      23.192
  H      697.122     -85.045      22.974
  H      687.598     -91.267      22.868
  H      688.745     -90.997      24.157
  H      688.919     -92.384      23.110

 3  4  5  6  7  8  9  10  11  12  13  21  23  27  28  29  30  32 0
 6-311+G(2d,p)
 ****
 34  35 0
 6-311+G(2d,p)
 ****
 1  2  14  15  16  17  18  19  20  22  24  25  26 0
 3-21G
 ****
 31  33  36  37  38  39  40  41  42  43  44  45  46 0
 3-21G
 ****


