%nproc=1
%NoSave
%Mem=1900MB
#P OB98/GEN NMR

erre ene a

0 1
  C      128.603      13.119     -19.472
  O      128.779      14.516     -19.317
  P      127.838      15.294     -18.282
  C      125.633      14.527     -19.428
  O      126.454      15.613     -19.029
  C      124.179      14.981     -19.570
  O      123.358      13.846     -19.981
  C      123.570      15.541     -18.276
  O      122.646      16.575     -18.646
  C      122.807      14.349     -17.731
  O      121.806      14.707     -16.791
  C      122.274      13.749     -19.036
  N      121.813      12.371     -18.883
  C      120.494      12.178     -18.486
  O      119.703      13.093     -18.259
  N      120.113      10.878     -18.293
  C      120.925       9.784     -18.366
  O      120.551       8.656     -18.067
  C      122.309      10.047     -18.789
  C      122.683      11.307     -19.025
  O      128.539      16.727     -18.154
  O      127.683      14.628     -16.956
  H      121.302      15.450     -17.169
  H      129.070      16.774     -17.338
  H      119.157      10.719     -18.016
  H      122.975       9.199     -18.878
  H      123.703      11.532     -19.318
  H      121.453      14.366     -19.426
  H      123.506      13.666     -17.234
  H      124.313      15.927     -17.573
  H      124.124      15.727     -20.372
  H      125.691      13.739     -18.675
  H      126.003      14.115     -20.373
  P      122.875      18.041     -18.032
  C      122.156      17.378     -15.609
  O      121.914      18.161     -16.758
  O      122.157      18.945     -19.144
  O      124.313      18.385     -17.819
  H      121.311      18.572     -19.440
  H      123.225      17.222     -15.445
  H      121.663      16.410     -15.721
  H      121.737      17.889     -14.738
  H      129.302      12.749     -20.193
  H      127.606      12.920     -19.806
  H      128.768      12.632     -18.534

 3  4  5  6  7  8  9  10  11  12  13  23  28  29  30  31  32 0
 6-311+G(2d,p)
 ****
 33  34 0
 6-311+G(2d,p)
 ****
 1  2  14  15  16  17  18  19  20  21  22  24  25  26 0
 3-21G
 ****
 27  35  36  37  38  39  40  41  42  43  44  45 0
 3-21G
 ****


