%nproc=1
%NoSave
%Mem=1900MB
#P OB98/GEN NMR

erre ene a

0 1
  C     1477.138    -892.730    -167.457
  O     1478.154    -892.680    -168.433
  P     1479.462    -893.570    -168.317
  C     1479.553    -893.490    -170.940
  O     1480.252    -893.530    -169.710
  C     1480.556    -893.750    -172.076
  O     1481.564    -894.720    -171.642
  C     1479.874    -894.360    -173.289
  O     1479.537    -893.330    -174.244
  C     1480.918    -895.320    -173.845
  O     1481.899    -894.640    -174.614
  C     1481.523    -895.870    -172.510
  N     1480.832    -896.950    -171.811
  C     1480.698    -898.200    -172.434
  O     1481.183    -898.480    -173.524
  N     1479.990    -899.130    -171.717
  C     1479.435    -898.960    -170.483
  O     1478.610    -899.710    -169.969
  C     1479.836    -897.730    -169.793
  C     1480.483    -896.790    -170.474
  O     1478.891    -895.080    -168.280
  O     1480.337    -893.280    -167.138
  H     1482.575    -895.280    -174.840
  H     1478.844    -895.400    -167.357
  H     1479.773    -900.000    -172.218
  H     1479.536    -897.600    -168.748
  H     1480.751    -895.860    -169.995
  H     1482.576    -896.200    -172.694
  H     1480.466    -896.060    -174.510
  H     1478.975    -894.920    -173.010
  H     1481.046    -892.820    -172.335
  H     1479.065    -892.540    -171.082
  H     1478.774    -894.270    -170.952
  P     1478.303    -893.520    -175.203
  C     1478.742    -891.140    -176.079
  O     1478.543    -892.510    -176.425
  O     1476.943    -893.430    -174.563
  O     1478.540    -894.970    -175.841
  H     1478.036    -895.640    -175.369
  H     1479.091    -890.610    -176.943
  H     1479.521    -891.060    -175.289
  H     1477.833    -890.710    -175.734
  H     1476.352    -892.056    -167.726
  H     1477.541    -892.446    -166.507
  H     1476.750    -893.725    -167.397

 3  4  5  6  7  8  9  10  11  12  13  23  28  29  30  31  32 0
 6-311+G(2d,p)
 ****
 33  34 0
 6-311+G(2d,p)
 ****
 1  2  14  15  16  17  18  19  20  21  22  24  25  26  27 0
 3-21G
 ****
 35  36  37  38  39  40  41  42  43  44  45 0
 3-21G
 ****


