%nproc=1
%NoSave
%Mem=1900MB
#P OB98/GEN NMR

erre ene a

0 1
  C     -570.322     124.575    -309.729
  O     -571.162     124.071    -308.710
  H     -570.172     123.793    -310.478
  H     -569.350     124.846    -309.305
  H     -570.775     125.445    -310.213
  P     -571.779     125.143    -307.688
  C     -571.249     125.495    -305.170
  O     -570.733     125.268    -306.471
  C     -570.753     124.416    -304.201
  O     -571.345     123.136    -304.527
  C     -569.239     124.202    -304.228
  O     -568.573     125.151    -303.395
  C     -569.145     122.806    -303.639
  O     -569.323     122.863    -302.209
  C     -570.348     122.104    -304.292
  N     -567.928     118.224    -306.496
  C     -567.944     118.622    -305.174
  N     -567.198     117.888    -304.312
  N     -568.622     119.651    -304.723
  C     -569.295     120.304    -305.703
  C     -569.359     120.011    -307.048
  C     -568.614     118.858    -307.520
  O     -568.587     118.453    -308.681
  N     -570.152     120.903    -307.727
  C     -570.553     121.753    -306.794
  N     -570.058     121.433    -305.548
  O     -573.016     124.351    -307.047
  O     -572.220     126.430    -308.297
  H     -569.221     121.952    -301.871
  H     -573.843     124.666    -307.457
  H     -567.388     117.425    -306.793
  H     -571.198     122.597    -306.968
  H     -570.803     121.357    -303.632
  H     -568.177     122.335    -303.820
  H     -566.631     117.097    -304.594
  H     -568.841     124.203    -305.252
  H     -567.187     118.165    -303.342
  H     -571.091     124.682    -303.187
  H     -572.344     125.476    -305.203
  H     -570.916     126.488    -304.821
  P     -566.965     125.195    -303.455
  C     -565.064     124.436    -301.865
  O     -566.419     124.283    -302.251
  O     -566.643     126.689    -302.972
  O     -566.361     124.921    -304.798
  H     -566.289     127.214    -303.722
  H     -564.846     123.769    -301.058
  H     -564.895     125.444    -301.550
  H     -564.429     124.210    -302.696

 6  7  8  9  10  11  12  13  14  15  26  29  33  34 0
 6-311+G(2d,p)
 ****
 36  38  39  40  41 0
 6-311+G(2d,p)
 ****
 1  2  3  4  5  16  17  18  19  20  21  22  23  24  25 0
 3-21G
 ****
 27  28  30  31  32  35  37  42  43  44  45  46  47 0
 3-21G
 ****
 48  49 0
 3-21G
 ****


