%nproc=1
%NoSave
%Mem=1900MB
#P OB98/GEN NMR

erre ene a

0 1
  C      359.258     214.955     417.445
  O      359.198     216.353     417.246
  H      359.797     214.758     418.373
  H      359.788     214.471     416.623
  H      358.248     214.540     417.533
  P      358.552     216.904     415.887
  C      360.673     216.604     414.438
  O      359.754     217.516     415.023
  C      362.002     217.302     414.115
  O      361.781     218.255     413.037
  C      362.599     218.081     415.300
  O      364.024     218.069     415.147
  C      362.047     219.472     415.046
  O      362.715     220.440     415.819
  C      362.184     219.553     413.525
  N      361.392     220.628     412.946
  C      362.098     221.749     412.506
  O      363.321     221.801     412.624
  N      361.395     222.798     411.967
  C      360.101     222.756     411.935
  N      359.465     223.836     411.403
  C      359.312     221.614     412.445
  C      360.014     220.592     412.929
  O      357.372     217.803     416.044
  O      358.168     215.574     415.078
  H      362.290     221.323     415.718
  H      357.202     215.433     415.116
  H      358.234     221.637     412.415
  H      359.529     219.709     413.329
  H      363.234     219.701     413.236
  H      360.990     219.524     415.333
  H      362.314     217.667     416.271
  H      362.710     216.551     413.737
  H      360.042     224.601     411.076
  H      360.219     216.223     413.519
  H      358.460     223.924     411.347
  H      360.855     215.763     415.115
  P      364.969     217.013     415.905
  C      365.172     218.368     418.090
  O      365.859     217.791     416.986
  O      365.751     216.136     414.983
  O      363.972     216.133     416.801
  H      364.338     215.230     416.889
  H      365.875     218.854     418.733
  H      364.663     217.600     418.634
  H      364.461     219.083     417.733

 6  7  8  9  10  11  12  13  14  15  16  26  30  31  32  33  35 0
 6-311+G(2d,p)
 ****
 37  38 0
 6-311+G(2d,p)
 ****
 1  2  3  4  5  17  18  19  20  21  22  23  24  25 0
 3-21G
 ****
 27  28  29  34  36  39  40  41  42  43  44  45  46 0
 3-21G
 ****


