%nproc=1
%NoSave
%Mem=1900MB
#P OB98/GEN NMR

erre ene a

0 1
  C     1878.057    2039.807    -885.700
  O     1877.877    2041.107    -885.236
  H     1878.521    2039.175    -884.970
  H     1877.045    2039.400    -885.928
  H     1878.641    2039.822    -886.643
  P     1879.224    2041.929    -884.859
  C     1877.616    2043.968    -884.779
  O     1878.734    2043.334    -884.185
  C     1877.466    2045.343    -884.159
  O     1878.744    2046.040    -884.178
  C     1876.479    2046.282    -884.890
  O     1875.143    2046.008    -884.540
  C     1876.953    2047.632    -884.371
  O     1876.451    2047.849    -883.065
  C     1878.479    2047.464    -884.391
  N     1880.059    2051.518    -887.073
  C     1879.460    2051.446    -885.880
  N     1879.037    2050.312    -885.197
  C     1879.375    2049.197    -885.938
  C     1880.010    2049.148    -887.160
  C     1880.352    2050.370    -887.720
  N     1881.003    2050.489    -888.962
  N     1880.127    2047.850    -887.613
  C     1879.605    2047.152    -886.622
  N     1879.107    2047.910    -885.606
  O     1879.812    2042.388    -886.274
  O     1880.230    2041.183    -884.038
  H     1876.810    2048.694    -882.736
  H     1880.778    2042.574    -886.206
  H     1879.238    2052.363    -885.345
  H     1879.547    2046.002    -886.640
  H     1878.970    2048.019    -883.550
  H     1876.559    2048.471    -885.019
  H     1876.625    2046.196    -885.984
  H     1877.188    2045.249    -883.107
  H     1876.695    2043.380    -884.536
  H     1881.080    2051.429    -889.345
  H     1881.096    2049.667    -889.531
  H     1877.751    2044.049    -885.849
  P     1874.075    2045.875    -885.741
  C     1873.164    2043.876    -884.279
  O     1872.872    2044.988    -885.086
  O     1874.821    2044.790    -886.713
  O     1873.688    2047.134    -886.424
  H     1874.521    2044.909    -887.637
  H     1872.251    2043.428    -883.946
  H     1873.737    2044.191    -883.432
  H     1873.726    2043.162    -884.845

 6  7  8  9  10  11  12  13  14  15  25  28  32  33  34  35 0
 6-311+G(2d,p)
 ****
 36  39  40 0
 6-311+G(2d,p)
 ****
 1  2  3  4  5  16  17  18  19  20  21  22  23  24 0
 3-21G
 ****
 26  27  29  30  31  37  38  41  42  43  44  45  46  47 0
 3-21G
 ****
 48 0
 3-21G
 ****


