%nproc=1
%NoSave
%Mem=1900MB
#P OB98/GEN NMR

erre ene a

0 1
  C      -65.128     -35.287     113.111
  O      -64.521     -34.043     113.417
  P      -63.796     -33.264     112.212
  C      -61.808     -33.859     110.636
  O      -62.434     -34.050     111.901
  C      -60.320     -34.183     110.734
  O      -59.625     -33.126     111.425
  C      -59.997     -35.455     111.509
  O      -60.276     -36.611     110.735
  C      -58.518     -35.230     111.810
  O      -57.727     -35.540     110.651
  C      -58.475     -33.717     112.090
  N      -58.875     -29.961     115.550
  C      -58.804     -29.941     114.199
  N      -58.676     -30.981     113.350
  C      -58.630     -32.141     114.024
  C      -58.670     -32.317     115.397
  C      -58.803     -31.159     116.178
  N      -58.871     -31.183     117.556
  N      -58.573     -33.654     115.723
  C      -58.488     -34.276     114.566
  N      -58.534     -33.408     113.509
  O      -63.295     -31.913     112.903
  O      -64.666     -32.997     111.022
  H      -57.919     -36.469     110.408
  H      -63.329     -31.165     112.276
  H      -58.859     -28.957     113.741
  H      -58.398     -35.349     114.441
  H      -57.577     -33.240     111.684
  H      -58.150     -35.847     112.635
  H      -60.569     -35.488     112.445
  H      -59.920     -34.249     109.712
  H      -61.923     -32.815     110.325
  H      -58.816     -30.302     118.042
  H      -58.675     -32.058     118.025
  H      -62.302     -34.497     109.896
  P      -61.034     -37.821     111.470
  C      -60.530     -39.080     113.654
  O      -59.996     -38.290     112.605
  O      -60.912     -38.986     110.382
  O      -62.413     -37.506     111.940
  H      -60.005     -39.078     110.045
  H      -59.715     -39.372     114.319
  H      -60.998     -39.981     113.248
  H      -61.263     -38.501     114.222
  H      -65.570     -35.695     113.996
  H      -64.387     -35.963     112.738
  H      -65.884     -35.142     112.368

 3  4  5  6  7  8  9  10  11  12  22  25  29  30  31  32 0
 6-311+G(2d,p)
 ****
 33  36  37 0
 6-311+G(2d,p)
 ****
 1  2  13  14  15  16  17  18  19  20  21  23  24  26 0
 3-21G
 ****
 27  28  34  35  38  39  40  41  42  43  44  45  46  47  48 0
 3-21G
 ****


