%nproc=1
%NoSave
%Mem=1900MB
#P OB98/GEN NMR

erre ene a

0 1
  C     -123.387    -160.988      62.178
  O     -123.422    -160.671      60.803
  P     -122.127    -160.059      60.071
  C     -123.142    -157.712      60.430
  O     -122.002    -158.552      60.616
  C     -123.409    -156.886      61.687
  O     -123.511    -157.737      62.848
  C     -122.326    -155.866      62.013
  O     -122.422    -154.736      61.158
  C     -122.607    -155.590      63.473
  O     -123.652    -154.622      63.629
  C     -123.062    -156.978      63.990
  N     -122.012    -157.671      64.728
  C     -121.527    -157.014      65.863
  O     -121.952    -155.896      66.173
  N     -120.524    -157.617      66.594
  C     -120.042    -158.753      66.211
  N     -119.047    -159.294      66.961
  C     -120.510    -159.467      65.004
  C     -121.481    -158.873      64.313
  O     -122.111    -160.211      58.585
  O     -120.911    -160.808      60.798
  H     -124.480    -155.063      63.330
  H     -120.832    -161.745      60.503
  H     -120.067    -160.410      64.714
  H     -121.881    -159.323      63.412
  H     -123.934    -156.870      64.649
  H     -121.727    -155.193      64.005
  H     -121.336    -156.336      61.912
  H     -124.376    -156.375      61.556
  H     -118.737    -158.751      67.770
  H     -124.010    -158.347      60.219
  H     -118.575    -160.157      66.734
  H     -122.977    -157.060      59.564
  P     -121.233    -154.392      60.152
  C     -120.715    -152.325      61.580
  O     -120.182    -153.468      60.927
  O     -121.659    -153.883      58.807
  O     -120.448    -155.786      60.000
  H     -120.240    -155.926      59.057
  H     -119.996    -151.983      62.326
  H     -121.655    -152.554      62.082
  H     -120.872    -151.532      60.855
  H     -124.336    -161.380      62.478
  H     -123.171    -160.105      62.742
  H     -122.627    -161.719      62.356

 3  4  5  6  7  8  9  10  11  12  13  23  27  28  29  30  32 0
 6-311+G(2d,p)
 ****
 34  35 0
 6-311+G(2d,p)
 ****
 1  2  14  15  16  17  18  19  20  21  22  24  25  26 0
 3-21G
 ****
 31  33  36  37  38  39  40  41  42  43  44  45  46 0
 3-21G
 ****


