%nproc=1
%NoSave
%Mem=1900MB
#P OB98/GEN NMR

erre ene a

0 1
  C       69.726    -152.338     131.012
  O       70.123    -153.556     130.414
  H       69.200    -152.559     131.946
  H       69.049    -151.787     130.352
  H       70.601    -151.723     131.242
  P       70.848    -153.506     128.986
  C       68.726    -152.428     127.972
  O       69.681    -153.481     127.888
  C       68.042    -152.214     126.622
  O       67.060    -151.162     126.719
  C       68.989    -151.801     125.503
  O       69.745    -152.906     125.054
  C       67.999    -151.233     124.496
  O       67.340    -152.286     123.776
  C       67.001    -150.505     125.430
  N       67.273    -149.074     125.566
  C       67.149    -148.314     124.399
  O       66.844    -148.852     123.334
  N       67.393    -146.962     124.469
  C       67.690    -146.413     125.605
  N       67.918    -145.072     125.611
  C       67.797    -147.176     126.867
  C       67.590    -148.488     126.773
  O       71.903    -154.541     128.745
  O       71.448    -152.024     128.912
  H       66.816    -152.784     124.437
  H       72.376    -152.014     129.215
  H       68.037    -146.676     127.794
  H       67.647    -149.121     127.653
  H       65.975    -150.621     125.063
  H       68.480    -150.594     123.756
  H       69.642    -150.985     125.838
  H       67.509    -153.141     126.363
  H       67.812    -144.588     124.724
  H       69.268    -151.523     128.265
  H       67.993    -144.518     126.453
  H       67.977    -152.647     128.746
  P       71.330    -152.997     125.302
  C       71.989    -151.073     123.724
  O       72.013    -152.477     123.945
  O       71.823    -154.318     125.789
  O       71.622    -151.792     126.316
  H       71.346    -152.040     127.237
  H       72.470    -150.850     122.795
  H       72.504    -150.578     124.520
  H       70.975    -150.735     123.690

 6  7  8  9  10  11  12  13  14  15  16  26  30  31  32  33  35 0
 6-311+G(2d,p)
 ****
 37  38 0
 6-311+G(2d,p)
 ****
 1  2  3  4  5  17  18  19  20  21  22  23  24  25 0
 3-21G
 ****
 27  28  29  34  36  39  40  41  42  43  44  45  46 0
 3-21G
 ****


