%nproc=1
%NoSave
%Mem=1900MB
#P OB98/GEN NMR

erre ene a

0 1
  C       -7.922     -27.646     -27.379
  O       -7.314     -26.916     -26.335
  H       -7.337     -28.552     -27.557
  H       -7.944     -27.058     -28.301
  H       -8.937     -27.937     -27.098
  P       -7.918     -25.477     -25.958
  C       -6.175     -24.577     -27.650
  O       -7.522     -24.544     -27.207
  C       -6.018     -23.751     -28.924
  O       -6.670     -24.390     -30.040
  C       -6.633     -22.356     -28.863
  O       -5.882     -21.442     -28.082
  C       -6.626     -22.001     -30.341
  O       -5.291     -21.649     -30.746
  C       -7.060     -23.345     -30.975
  N       -8.494     -23.411     -31.246
  C       -8.996     -22.508     -32.191
  O       -8.248     -21.708     -32.752
  N      -10.345     -22.505     -32.454
  C      -11.127     -23.318     -31.815
  N      -12.461     -23.242     -32.078
  C      -10.639     -24.297     -30.825
  C       -9.329     -24.287     -30.587
  O       -7.551     -24.937     -24.614
  O       -9.496     -25.642     -26.168
  H       -5.322     -21.466     -31.702
  H       -9.919     -24.779     -25.936
  H      -11.334     -24.947     -30.315
  H       -8.897     -24.965     -29.860
  H       -6.515     -23.528     -31.908
  H       -7.274     -21.154     -30.585
  H       -7.671     -22.402     -28.520
  H       -4.946     -23.708     -29.160
  H      -12.763     -22.531     -32.729
  H       -5.898     -25.621     -27.823
  H      -13.147     -23.629     -31.439
  H       -5.516     -24.158     -26.884
  P       -6.651     -20.174     -27.464
  C       -5.309     -18.327     -28.719
  O       -6.547     -18.998     -28.551
  O       -5.670     -19.698     -26.296
  O       -8.042     -20.434     -26.977
  H       -5.928     -20.090     -25.438
  H       -5.409     -17.577     -29.476
  H       -4.558     -19.031     -29.012
  H       -5.025     -17.866     -27.796

 6  7  8  9  10  11  12  13  14  15  16  26  30  31  32  33  35 0
 6-311+G(2d,p)
 ****
 37  38 0
 6-311+G(2d,p)
 ****
 1  2  3  4  5  17  18  19  20  21  22  23  24  25 0
 3-21G
 ****
 27  28  29  34  36  39  40  41  42  43  44  45  46 0
 3-21G
 ****


