%nproc=1
%NoSave
%Mem=1900MB
#P OB98/GEN NMR

erre ene a

0 1
  C     -220.708     558.087     137.301
  O     -221.300     557.395     138.380
  H     -219.655     557.797     137.237
  H     -220.766     559.166     137.456
  H     -221.201     557.818     136.361
  P     -222.821     557.732     138.760
  C     -223.612     555.537     139.875
  O     -223.169     556.871     140.066
  C     -223.922     554.865     141.217
  O     -222.684     554.731     141.974
  C     -224.907     555.657     142.094
  O     -225.627     554.708     142.889
  C     -223.955     556.466     142.955
  O     -224.616     557.030     144.062
  C     -222.872     555.419     143.229
  N     -221.636     556.008     143.718
  C     -221.155     555.510     144.934
  O     -221.776     554.637     145.538
  N     -220.001     556.043     145.453
  C     -219.415     557.029     144.845
  N     -218.284     557.518     145.418
  C     -219.923     557.619     143.588
  C     -221.025     557.062     143.084
  O     -223.809     557.611     137.649
  O     -222.756     559.231     139.320
  H     -225.207     556.368     144.489
  H     -223.110     559.848     138.654
  H     -219.408     558.451     143.133
  H     -221.473     557.428     142.166
  H     -223.220     554.679     143.962
  H     -223.537     557.302     142.383
  H     -225.601     556.269     141.512
  H     -224.292     553.849     141.029
  H     -217.977     557.091     146.282
  H     -222.810     554.994     139.362
  H     -217.757     558.294     145.046
  H     -224.507     555.521     139.242
  P     -227.226     554.574     142.852
  C     -227.021     552.299     144.050
  O     -227.701     553.549     143.990
  O     -227.778     554.276     141.496
  O     -227.773     555.988     143.377
  H     -228.627     556.174     142.948
  H     -227.428     551.710     144.845
  H     -225.979     552.468     144.228
  H     -227.145     551.781     143.122

 6  7  8  9  10  11  12  13  14  15  16  26  30  31  32  33  35 0
 6-311+G(2d,p)
 ****
 37  38 0
 6-311+G(2d,p)
 ****
 1  2  3  4  5  17  18  19  20  21  22  23  24  25 0
 3-21G
 ****
 27  28  29  34  36  39  40  41  42  43  44  45  46 0
 3-21G
 ****


