%nproc=1
%NoSave
%Mem=1900MB
#P OB98/GEN NMR

erre ene a

0 1
  C       87.311     159.562     -21.779
  O       86.827     159.326     -20.454
  P       85.443     158.529     -20.322
  C       83.966     160.667     -20.251
  O       84.384     159.483     -19.583
  C       82.703     161.223     -19.596
  O       81.576     160.338     -19.771
  C       82.836     161.408     -18.090
  O       83.622     162.549     -17.783
  C       81.370     161.524     -17.685
  O       80.873     162.845     -17.954
  C       80.698     160.516     -18.634
  N       77.353     157.786     -15.889
  C       77.319     159.056     -16.350
  N       78.254     159.710     -17.073
  C       79.303     158.912     -17.325
  C       79.477     157.596     -16.925
  C       78.439     157.027     -16.167
  N       78.481     155.738     -15.686
  N       80.687     157.109     -17.370
  C       81.246     158.120     -18.008
  N       80.443     159.227     -18.017
  O       85.763     157.404     -19.231
  O       84.969     157.935     -21.607
  H       81.170     163.423     -17.223
  H       85.812     156.529     -19.661
  H       76.424     159.621     -16.105
  H       82.223     158.096     -18.476
  H       79.738     160.883     -19.016
  H       81.200     161.319     -16.625
  H       83.282     160.514     -17.635
  H       82.469     162.185     -20.069
  H       83.774     160.456     -21.307
  H       77.730     155.433     -15.087
  H       79.323     155.195     -15.813
  H       84.783     161.398     -20.221
  P       85.199     162.337     -17.589
  C       84.993     160.942     -15.439
  O       85.368     162.191     -15.996
  O       85.760     163.802     -17.866
  O       85.794     161.239     -18.406
  H       85.234     164.485     -17.406
  H       85.187     160.970     -14.364
  H       85.577     160.137     -15.890
  H       83.926     160.768     -15.599
  H       88.235     160.099     -21.731
  H       86.592     160.138     -22.324
  H       87.467     158.626     -22.274

 3  4  5  6  7  8  9  10  11  12  22  25  29  30  31  32 0
 6-311+G(2d,p)
 ****
 33  36  37 0
 6-311+G(2d,p)
 ****
 1  2  13  14  15  16  17  18  19  20  21  23  24  26 0
 3-21G
 ****
 27  28  34  35  38  39  40  41  42  43  44  45  46  47  48 0
 3-21G
 ****


