%nproc=1
%NoSave
%Mem=1900MB
#P OB98/GEN NMR

erre ene a

0 1
  C      -53.385      73.701     116.204
  O      -53.800      73.131     117.446
  P      -52.714      72.230     118.211
  C      -51.955      74.034     119.915
  O      -51.597      73.210     118.816
  C      -50.897      73.954     121.018
  O      -49.603      74.399     120.570
  C      -51.231      74.803     122.237
  O      -52.175      74.131     123.053
  C      -49.866      74.949     122.896
  O      -49.559      73.809     123.725
  C      -48.913      75.007     121.691
  N      -45.350      78.541     122.400
  C      -45.558      77.347     123.064
  N      -44.676      77.041     124.038
  N      -46.541      76.529     122.794
  C      -47.343      76.963     121.795
  C      -47.224      78.110     121.046
  C      -46.134      79.010     121.356
  O      -45.895      80.066     120.783
  N      -48.194      78.180     120.077
  C      -48.968      77.140     120.328
  N      -48.462      76.336     121.317
  O      -51.961      71.471     117.021
  O      -53.315      71.270     119.182
  H      -49.428      73.029     123.156
  H      -52.193      70.524     117.034
  H      -44.582      79.138     122.655
  H      -49.887      76.913     119.808
  H      -48.007      74.416     121.868
  H      -49.821      75.824     123.549
  H      -43.894      77.623     124.296
  H      -51.604      75.785     121.922
  H      -44.806      76.166     124.532
  H      -50.809      72.900     121.313
  H      -52.924      73.726     120.312
  H      -52.073      75.063     119.561
  P      -53.271      75.018     123.814
  C      -55.259      73.634     122.883
  O      -54.639      74.900     122.993
  O      -52.781      76.517     123.537
  O      -53.377      74.749     125.279
  H      -52.840      77.037     124.360
  H      -56.338      73.777     122.793
  H      -55.055      73.006     123.755
  H      -54.891      73.132     121.984
  H      -54.187      74.276     115.790
  H      -53.119      72.919     115.524
  H      -52.539      74.335     116.368

 3  4  5  6  7  8  9  10  11  12  23  26  30  31 0
 6-311+G(2d,p)
 ****
 33  35  36  37  38 0
 6-311+G(2d,p)
 ****
 1  2  13  14  15  16  17  18  19  20  21  22  24  25 0
 3-21G
 ****
 27  28  29  32  34  39  40  41  42  43  44  45  46  47  48  49 0
 3-21G
 ****


