%nproc=1
%NoSave
%Mem=1900MB
#P OB98/GEN NMR

erre ene a

0 1
  C     -203.725     347.760     -45.157
  O     -204.074     346.397     -45.291
  H     -203.950     348.075     -44.133
  H     -204.313     348.368     -45.847
  H     -202.657     347.908     -45.341
  P     -203.717     345.635     -46.653
  C     -204.989     344.866     -48.766
  O     -205.084     345.481     -47.488
  C     -205.983     345.498     -49.746
  O     -207.334     345.229     -49.275
  C     -205.833     347.014     -49.881
  O     -206.074     347.389     -51.242
  C     -206.936     347.561     -48.998
  O     -207.362     348.862     -49.401
  C     -208.015     346.489     -49.134
  N     -212.117     348.601     -47.069
  C     -211.535     348.804     -48.305
  N     -212.122     349.720     -49.104
  N     -210.471     348.171     -48.718
  C     -210.000     347.265     -47.822
  C     -210.488     346.972     -46.570
  C     -211.653     347.700     -46.115
  O     -212.201     347.571     -45.020
  N     -209.721     346.009     -45.956
  C     -208.782     345.721     -46.836
  N     -208.897     346.467     -47.980
  O     -202.945     344.362     -46.483
  O     -202.892     346.707     -47.504
  H     -208.011     349.171     -48.729
  H     -201.944     346.497     -47.507
  H     -212.925     349.125     -46.796
  H     -207.994     344.993     -46.692
  H     -208.646     346.646     -50.017
  H     -206.573     347.629     -47.961
  H     -212.959     350.230     -48.859
  H     -204.843     347.361     -49.581
  H     -211.737     349.870     -50.032
  H     -205.878     344.999     -50.716
  H     -205.210     343.800     -48.653
  H     -203.967     344.977     -49.144
  P     -205.080     348.417     -51.962
  C     -204.719     350.959     -52.098
  O     -205.388     349.901     -51.430
  O     -204.981     348.285     -53.445
  O     -203.667     348.083     -51.265
  H     -202.957     348.200     -51.923
  H     -205.001     351.893     -51.659
  H     -204.990     350.955     -53.133
  H     -203.661     350.827     -52.006

 6  7  8  9  10  11  12  13  14  15  26  29  33  34 0
 6-311+G(2d,p)
 ****
 36  38  39  40  41 0
 6-311+G(2d,p)
 ****
 1  2  3  4  5  16  17  18  19  20  21  22  23  24  25 0
 3-21G
 ****
 27  28  30  31  32  35  37  42  43  44  45  46  47 0
 3-21G
 ****
 48  49 0
 3-21G
 ****


