%nproc=1
%NoSave
%Mem=1900MB
#P OB98/GEN NMR

erre ene a

0 1
  C     -184.520    -432.666    -168.816
  O     -183.892    -433.898    -168.523
  H     -185.282    -432.472    -168.055
  H     -185.002    -432.707    -169.796
  H     -183.786    -431.857    -168.797
  P     -182.811    -434.422    -169.591
  C     -184.429    -434.456    -171.638
  O     -183.703    -435.207    -170.673
  C     -185.300    -435.384    -172.476
  O     -184.489    -436.155    -173.393
  C     -186.084    -436.420    -171.670
  O     -187.232    -435.885    -171.037
  C     -186.448    -437.391    -172.778
  O     -187.503    -436.833    -173.582
  C     -185.120    -437.451    -173.561
  N     -184.232    -438.523    -173.101
  C     -183.922    -439.526    -174.027
  O     -184.381    -439.492    -175.166
  N     -183.119    -440.569    -173.629
  C     -182.648    -440.601    -172.420
  N     -181.862    -441.657    -172.085
  C     -182.936    -439.560    -171.415
  C     -183.726    -438.563    -171.819
  O     -182.072    -435.613    -168.818
  O     -181.898    -433.389    -170.159
  H     -187.436    -437.254    -174.456
  H     -181.482    -436.105    -169.441
  H     -182.531    -439.635    -170.418
  H     -183.981    -437.761    -171.138
  H     -185.303    -437.591    -174.634
  H     -186.803    -438.352    -172.409
  H     -185.440    -436.933    -170.945
  H     -185.970    -434.760    -173.082
  H     -181.727    -442.384    -172.777
  H     -183.711    -433.933    -172.278
  H     -181.574    -441.848    -171.133
  H     -185.063    -433.716    -171.138
  P     -187.467    -436.266    -169.493
  C     -187.970    -438.785    -169.922
  O     -188.458    -437.527    -169.474
  O     -188.380    -435.068    -168.956
  O     -186.216    -436.422    -168.687
  H     -188.172    -434.862    -168.022
  H     -188.747    -439.516    -169.847
  H     -187.141    -439.082    -169.315
  H     -187.655    -438.703    -170.941

 6  7  8  9  10  11  12  13  14  15  16  26  30  31  32  33  35 0
 6-311+G(2d,p)
 ****
 37  38 0
 6-311+G(2d,p)
 ****
 1  2  3  4  5  17  18  19  20  21  22  23  24  25 0
 3-21G
 ****
 27  28  29  34  36  39  40  41  42  43  44  45  46 0
 3-21G
 ****


