%nproc=1
%NoSave
%Mem=1900MB
#P OB98/GEN NMR

erre ene a

0 1
  C      518.306    -433.846     605.396
  O      519.644    -434.269     605.210
  H      518.283    -432.877     605.898
  H      517.825    -433.750     604.419
  H      517.759    -434.587     605.986
  P      520.542    -434.436     606.526
  C      520.161    -436.997     606.669
  O      519.999    -435.734     607.303
  C      521.076    -437.887     607.509
  O      520.488    -438.029     608.827
  C      521.305    -439.294     606.935
  O      522.704    -439.526     606.732
  C      520.817    -440.237     608.029
  O      521.653    -441.379     608.202
  C      520.806    -439.354     609.272
  N      519.806    -442.994     612.699
  C      520.972    -442.561     612.171
  N      521.183    -441.516     611.345
  C      520.030    -440.875     611.086
  C      518.765    -441.181     611.572
  C      518.673    -442.315     612.398
  N      517.476    -442.785     612.895
  N      517.826    -440.295     611.074
  C      518.496    -439.498     610.274
  N      519.831    -439.817     610.237
  O      520.066    -433.220     607.451
  O      522.014    -434.410     606.295
  H      521.151    -442.012     608.746
  H      520.847    -432.748     607.806
  H      521.853    -443.130     612.445
  H      518.071    -438.705     609.671
  H      521.791    -439.320     609.764
  H      519.807    -440.574     607.779
  H      520.757    -439.465     606.000
  H      522.036    -437.368     607.635
  H      520.614    -436.856     605.682
  H      517.487    -443.670     613.380
  H      516.623    -442.353     612.581
  H      519.182    -437.462     606.537
  P      523.327    -438.999     605.343
  C      524.540    -436.961     606.413
  O      523.559    -437.418     605.489
  O      522.083    -439.094     604.333
  O      524.498    -439.788     604.867
  H      522.406    -439.214     603.420
  H      524.576    -435.892     606.395
  H      525.497    -437.355     606.141
  H      524.285    -437.293     607.398

 6  7  8  9  10  11  12  13  14  15  25  28  32  33  34  35 0
 6-311+G(2d,p)
 ****
 36  39  40 0
 6-311+G(2d,p)
 ****
 1  2  3  4  5  16  17  18  19  20  21  22  23  24 0
 3-21G
 ****
 26  27  29  30  31  37  38  41  42  43  44  45  46  47  48 0
 3-21G
 ****


