%nproc=1
%NoSave
%Mem=1900MB
#P OB98/GEN NMR

erre ene a

0 1
  C      671.889    -409.809       5.813
  O      673.254    -409.480       6.095
  P      674.502    -410.231       5.416
  C      676.020    -408.135       5.300
  O      675.841    -409.447       5.824
  C      677.306    -407.499       5.837
  O      677.175    -407.230       7.253
  C      678.550    -408.373       5.743
  O      679.035    -408.473       4.415
  C      679.493    -407.651       6.705
  O      680.167    -406.563       6.062
  C      678.518    -407.116       7.778
  N      678.651    -407.802       9.051
  C      679.701    -407.403       9.876
  O      680.519    -406.569       9.481
  N      679.815    -407.967      11.124
  C      679.009    -408.926      11.470
  N      679.156    -409.438      12.725
  C      677.971    -409.476      10.580
  C      677.844    -408.868       9.397
  O      674.354    -410.438       3.942
  O      674.624    -411.631       6.189
  H      675.049    -412.290       5.602
  H      679.469    -405.987       5.681
  H      677.345    -410.293      10.893
  H      677.093    -409.196       8.684
  H      678.684    -406.046       7.923
  H      680.265    -408.323       7.101
  H      678.320    -409.372       6.132
  H      677.464    -406.546       5.312
  H      679.870    -409.034      13.315
  H      675.163    -407.522       5.610
  H      678.567    -410.165      13.102
  H      676.031    -408.183       4.203
  P      678.542    -409.739       3.554
  C      678.300    -408.661       1.198
  O      679.043    -409.519       2.047
  O      676.953    -409.534       3.465
  O      678.891    -411.063       4.146
  H      676.513    -410.401       3.540
  H      678.976    -408.248       0.444
  H      677.841    -407.845       1.753
  H      677.524    -409.243       0.695
  H      671.244    -409.174       6.384
  H      671.707    -410.830       6.075
  H      671.696    -409.668       4.770

 3  4  5  6  7  8  9  10  11  12  13  24  27  28  29  30  32 0
 6-311+G(2d,p)
 ****
 34  35 0
 6-311+G(2d,p)
 ****
 1  2  14  15  16  17  18  19  20  21  22  23  25  26 0
 3-21G
 ****
 31  33  36  37  38  39  40  41  42  43  44  45  46 0
 3-21G
 ****


