%nproc=1
%NoSave
%Mem=1900MB
#P OB98/GEN NMR

erre ene a

0 1
  C       51.817    -360.452     163.593
  O       52.332    -360.520     162.280
  H       52.068    -359.477     164.016
  H       52.274    -361.228     164.211
  H       50.729    -360.565     163.599
  P       51.864    -361.720     161.327
  C       52.917    -360.287     159.460
  O       52.731    -361.595     159.982
  C       53.273    -360.340     157.970
  O       54.618    -360.887     157.829
  C       52.331    -361.220     157.135
  O       52.278    -360.660     155.819
  C       53.078    -362.541     157.115
  O       52.609    -363.384     156.089
  C       54.523    -362.049     156.986
  N       55.497    -363.075     157.347
  C       56.143    -363.722     156.297
  O       55.905    -363.481     155.114
  N       57.045    -364.685     156.649
  C       57.312    -365.102     157.921
  O       58.107    -365.997     158.176
  C       56.567    -364.417     158.988
  C       55.707    -363.448     158.660
  O       50.393    -361.841     161.112
  O       52.476    -363.032     162.012
  H       52.609    -362.905     155.231
  H       51.904    -363.803     161.831
  H       57.530    -365.152     155.901
  H       56.747    -364.732     160.009
  H       55.145    -362.925     159.424
  H       54.732    -361.735     155.954
  H       52.942    -363.074     158.061
  H       51.328    -361.301     157.557
  H       53.305    -359.315     157.581
  H       53.730    -359.812     160.019
  H       52.002    -359.703     159.600
  P       51.243    -359.496     155.426
  C       52.908    -357.913     154.259
  O       51.773    -358.761     154.102
  O       50.913    -358.568     156.550
  O       49.935    -360.266     154.925
  H       49.145    -359.715     155.086
  H       53.165    -357.483     153.314
  H       53.733    -358.486     154.626
  H       52.677    -357.133     154.955

 6  7  8  9  10  11  12  13  14  15  16  26  31  32  33  34  35 0
 6-311+G(2d,p)
 ****
 36  37 0
 6-311+G(2d,p)
 ****
 1  2  3  4  5  17  18  19  20  21  22  23  24  25 0
 3-21G
 ****
 27  28  29  30  38  39  40  41  42  43  44  45 0
 3-21G
 ****


