%nproc=1
%NoSave
%Mem=1900MB
#P OB98/GEN NMR

erre ene a

0 1
  C     -469.715     747.522    -950.545
  O     -469.112     746.856    -949.438
  P     -469.436     747.487    -947.983
  C     -470.535     745.400    -946.849
  O     -470.713     746.715    -947.396
  C     -471.737     744.950    -946.027
  O     -471.763     745.629    -944.721
  C     -473.087     745.235    -946.711
  O     -473.966     744.161    -946.345
  C     -473.507     746.510    -946.029
  O     -474.912     746.814    -946.205
  C     -473.064     746.215    -944.598
  N     -475.656     750.378    -943.230
  C     -475.954     749.407    -944.043
  N     -475.206     748.332    -944.377
  C     -474.031     748.336    -943.703
  C     -473.603     749.295    -942.809
  C     -474.457     750.393    -942.538
  N     -474.155     751.423    -941.697
  N     -472.314     748.959    -942.332
  C     -471.967     747.902    -942.989
  N     -473.007     747.424    -943.750
  O     -470.001     748.925    -948.345
  O     -468.273     747.530    -947.103
  H     -475.422     746.049    -945.998
  H     -469.303     749.598    -948.245
  H     -476.901     749.467    -944.541
  H     -471.027     747.384    -942.976
  H     -473.742     745.522    -944.077
  H     -472.989     747.356    -946.456
  H     -473.033     745.321    -947.843
  H     -471.621     743.867    -945.823
  H     -469.640     745.403    -946.212
  H     -474.824     752.139    -941.567
  H     -473.271     751.436    -941.205
  H     -470.292     744.710    -947.667
  P     -473.803     742.775    -947.132
  C     -473.138     741.476    -945.025
  O     -472.720     741.924    -946.303
  O     -472.935     743.213    -948.447
  O     -475.110     742.057    -947.508
  H     -472.190     743.736    -948.155
  H     -472.352     740.848    -944.586
  H     -474.055     740.821    -945.142
  H     -473.314     742.335    -944.356
  H     -469.438     747.028    -951.453
  H     -469.380     748.538    -950.576
  H     -470.779     747.501    -950.437

 3  4  5  6  7  8  9  10  11  12  22  25  29  30  31  32 0
 6-311+G(2d,p)
 ****
 33  36  37 0
 6-311+G(2d,p)
 ****
 1  2  13  14  15  16  17  18  19  20  21  23  24  26 0
 3-21G
 ****
 27  28  34  35  38  39  40  41  42  43  44  45  46  47  48 0
 3-21G
 ****


