%nproc=1
%NoSave
%Mem=1900MB
#P OB98/GEN NMR

erre ene a

0 1
  C      475.320    -157.928    -313.035
  O      475.410    -159.050    -312.172
  P      474.500    -159.158    -310.855
  C      475.200    -161.640    -310.669
  O      475.121    -160.376    -310.018
  C      476.543    -162.294    -310.365
  O      476.843    -162.161    -308.959
  C      476.600    -163.789    -310.659
  O      476.722    -164.030    -312.052
  C      477.796    -164.206    -309.812
  O      479.023    -163.883    -310.487
  C      477.634    -163.307    -308.566
  N      477.026    -164.008    -307.441
  C      477.768    -165.055    -306.887
  O      478.875    -165.350    -307.326
  N      477.246    -165.724    -305.806
  C      476.081    -165.400    -305.337
  N      475.645    -166.056    -304.226
  C      475.243    -164.342    -305.930
  C      475.772    -163.691    -306.962
  O      473.035    -159.264    -311.110
  O      474.912    -157.891    -309.978
  H      479.110    -164.513    -311.228
  H      474.384    -157.080    -310.181
  H      474.271    -164.112    -305.514
  H      475.233    -162.885    -307.439
  H      478.606    -162.914    -308.253
  H      477.816    -165.276    -309.578
  H      475.697    -164.286    -310.285
  H      477.323    -161.763    -310.932
  H      476.324    -166.644    -303.756
  H      475.113    -161.483    -311.749
  H      474.910    -165.675    -303.645
  H      474.370    -162.270    -310.333
  P      475.976    -165.316    -312.650
  C      475.908    -164.019    -314.893
  O      476.183    -165.245    -314.241
  O      474.426    -164.975    -312.433
  O      476.361    -166.606    -312.009
  H      474.079    -165.449    -311.655
  H      476.319    -164.062    -315.904
  H      476.372    -163.181    -314.360
  H      474.830    -163.864    -314.959
  H      476.004    -158.048    -313.849
  H      475.565    -157.039    -312.491
  H      474.323    -157.850    -313.416

 3  4  5  6  7  8  9  10  11  12  13  23  27  28  29  30  32 0
 6-311+G(2d,p)
 ****
 34  35 0
 6-311+G(2d,p)
 ****
 1  2  14  15  16  17  18  19  20  21  22  24  25  26 0
 3-21G
 ****
 31  33  36  37  38  39  40  41  42  43  44  45  46 0
 3-21G
 ****


