%nproc=1
%NoSave
%Mem=1900MB
#P OB98/GEN NMR

erre ene a

0 1
  C     -192.271     -81.618     374.066
  O     -193.558     -82.184     374.196
  H     -191.555     -82.251     374.602
  H     -192.249     -80.621     374.512
  H     -191.971     -81.565     373.018
  P     -194.770     -81.535     373.374
  C     -195.805     -83.672     372.369
  O     -195.054     -82.493     372.120
  C     -195.376     -84.773     371.398
  O     -194.059     -85.261     371.746
  C     -196.284     -85.998     371.415
  O     -197.488     -85.752     370.715
  C     -195.377     -87.037     370.775
  O     -195.379     -86.912     369.344
  C     -194.000     -86.653     371.362
  N     -193.608     -87.495     372.493
  C     -193.519     -88.865     372.247
  O     -193.781     -89.370     371.157
  N     -193.145     -89.636     373.311
  C     -192.965     -89.205     374.593
  O     -192.718     -89.954     375.531
  C     -193.096     -87.755     374.801
  C     -193.405     -86.980     373.757
  O     -194.625     -80.088     373.041
  O     -196.045     -81.793     374.314
  H     -196.269     -87.181     369.044
  H     -196.297     -80.959     374.752
  H     -193.086     -90.630     373.155
  H     -192.949     -87.371     375.802
  H     -193.513     -85.908     373.894
  H     -193.222     -86.731     370.593
  H     -195.685     -88.053     371.009
  H     -196.494     -86.296     372.447
  H     -195.320     -84.343     370.390
  H     -196.867     -83.452     372.220
  H     -195.646     -83.985     373.406
  P     -198.887     -85.804     371.486
  C     -200.091     -83.575     371.040
  O     -199.260     -84.311     371.937
  O     -198.981     -86.830     372.569
  O     -199.951     -86.104     370.329
  H     -200.407     -86.950     370.517
  H     -200.273     -82.600     371.441
  H     -201.021     -84.088     370.914
  H     -199.602     -83.485     370.093

 6  7  8  9  10  11  12  13  14  15  16  26  31  32  33  34  35 0
 6-311+G(2d,p)
 ****
 36  37 0
 6-311+G(2d,p)
 ****
 1  2  3  4  5  17  18  19  20  21  22  23  24  25 0
 3-21G
 ****
 27  28  29  30  38  39  40  41  42  43  44  45 0
 3-21G
 ****


