%nproc=1
%NoSave
%Mem=1900MB
#P OB98/GEN NMR

erre ene a

0 1
  C     -714.785      20.322    -891.510
  O     -716.097      20.717    -891.820
  H     -714.776      19.243    -891.310
  H     -714.421      20.847    -890.610
  H     -714.118      20.536    -892.350
  P     -716.335      22.281    -892.110
  C     -717.907      22.065    -894.130
  O     -716.593      22.359    -893.700
  C     -717.949      20.702    -894.830
  O     -717.703      19.673    -893.830
  C     -719.290      20.382    -895.500
  O     -719.078      19.706    -896.730
  C     -719.968      19.453    -894.500
  O     -720.941      18.608    -895.130
  C     -718.767      18.716    -893.900
  N     -719.656      14.479    -891.200
  C     -719.248      14.669    -892.460
  N     -719.031      15.832    -893.120
  C     -719.207      16.889    -892.270
  C     -719.618      16.846    -890.950
  C     -719.863      15.570    -890.410
  N     -720.288      15.360    -889.120
  N     -719.716      18.128    -890.450
  C     -719.381      18.916    -891.440
  N     -719.070      18.209    -892.570
  O     -715.282      23.201    -891.580
  O     -717.801      22.506    -891.510
  H     -720.490      18.059    -895.780
  H     -718.412      21.783    -891.760
  H     -719.104      13.766    -893.060
  H     -719.367      20.011    -891.390
  H     -718.473      17.855    -894.510
  H     -720.491      20.050    -893.730
  H     -719.897      21.292    -895.680
  H     -717.131      20.654    -895.560
  H     -718.264      22.846    -894.830
  H     -720.415      14.421    -888.790
  H     -720.428      16.162    -888.520
  H     -718.579      22.073    -893.260
  P     -718.690      20.557    -898.010
  C     -716.335      19.833    -898.820
  O     -717.084      20.769    -898.040
  O     -719.506      21.793    -898.270
  O     -718.905      19.493    -899.200
  H     -719.266      19.980    -900.000
  H     -715.294      20.074    -898.763
  H     -716.657      19.880    -899.839
  H     -716.494      18.845    -898.441

 6  7  8  9  10  11  12  13  14  15  25  28  32  33  34  35 0
 6-311+G(2d,p)
 ****
 36  39  40 0
 6-311+G(2d,p)
 ****
 1  2  3  4  5  16  17  18  19  20  21  22  23  24 0
 3-21G
 ****
 26  27  29  30  31  37  38  41  42  43  44  45  46  47 0
 3-21G
 ****
 48 0
 3-21G
 ****


