%nproc=1
%NoSave
%Mem=1900MB
#P OB98/GEN NMR

erre ene a

0 1
  C      260.203     336.891    -423.105
  O      259.384     337.600    -424.012
  P      257.895     337.094    -424.326
  C      258.330     337.091    -426.861
  O      257.503     337.570    -425.807
  C      257.772     337.519    -428.217
  O      256.384     337.125    -428.350
  C      257.776     339.022    -428.443
  O      259.079     339.519    -428.683
  C      256.814     339.141    -429.616
  O      257.476     338.838    -430.855
  C      255.777     338.046    -429.282
  N      254.541     338.599    -428.749
  C      253.369     338.279    -429.448
  O      253.428     337.637    -430.499
  N      252.168     338.708    -428.944
  C      252.142     339.487    -427.909
  N      250.922     339.831    -427.414
  C      253.368     339.983    -427.238
  C      254.518     339.482    -427.690
  O      256.884     337.412    -423.277
  O      258.056     335.509    -424.498
  H      257.390     335.061    -423.940
  H      258.308     339.361    -430.861
  H      253.294     340.686    -426.419
  H      255.462     339.770    -427.247
  H      255.542     337.456    -430.174
  H      256.396     340.149    -429.714
  H      257.347     339.527    -427.568
  H      258.351     337.009    -428.997
  H      250.105     339.461    -427.891
  H      258.370     335.998    -426.805
  H      250.787     340.147    -426.459
  H      259.347     337.479    -426.724
  P      259.752     340.382    -427.508
  C      260.239     342.003    -429.470
  O      260.636     341.527    -428.196
  O      260.845     339.379    -426.896
  O      258.806     340.855    -426.459
  H      260.902     339.506    -425.931
  H      260.702     342.980    -429.638
  H      259.151     342.114    -429.531
  H      260.580     341.313    -430.244
  H      261.153     337.378    -423.027
  H      260.343     335.891    -423.458
  H      259.734     336.868    -422.144

 3  4  5  6  7  8  9  10  11  12  13  24  27  28  29  30  32 0
 6-311+G(2d,p)
 ****
 34  35 0
 6-311+G(2d,p)
 ****
 1  2  14  15  16  17  18  19  20  21  22  23  25  26 0
 3-21G
 ****
 31  33  36  37  38  39  40  41  42  43  44  45  46 0
 3-21G
 ****


