%nproc=1
%NoSave
%Mem=1900MB
#P OB98/GEN NMR

erre ene a

0 1
  C      129.705     -38.639     128.127
  O      131.030     -38.609     127.636
  H      129.689     -38.197     129.126
  H      129.370     -39.677     128.199
  H      129.033     -38.074     127.477
  P      131.235     -38.834     126.062
  C      132.065     -36.393     125.764
  O      131.129     -37.386     125.373
  C      131.507     -34.996     125.489
  O      130.314     -34.802     126.310
  C      132.485     -33.854     125.810
  O      132.312     -32.812     124.842
  C      131.981     -33.346     127.148
  O      132.368     -32.000     127.398
  C      130.478     -33.537     126.975
  N      128.714     -30.403     130.474
  C      129.186     -30.153     129.203
  N      129.261     -28.861     128.817
  N      129.562     -31.092     128.375
  C      129.419     -32.342     128.879
  C      128.969     -32.721     130.119
  C      128.572     -31.671     131.035
  O      128.167     -31.827     132.181
  N      129.033     -34.084     130.269
  C      129.540     -34.522     129.129
  N      129.791     -33.502     128.255
  O      129.872     -39.556     125.632
  O      132.434     -39.635     125.682
  H      132.053     -31.752     128.290
  H      129.996     -40.523     125.633
  H      128.454     -29.643     131.079
  H      129.760     -35.553     128.898
  H      130.024     -32.758     126.349
  H      132.368     -33.976     127.958
  H      128.961     -28.085     129.386
  H      133.535     -34.162     125.838
  H      129.567     -28.666     127.871
  H      131.185     -34.947     124.442
  H      132.990     -36.525     125.194
  H      132.290     -36.509     126.829
  P      133.377     -32.706     123.649
  C      131.899     -33.808     121.811
  O      133.082     -33.878     122.594
  O      134.742     -33.172     124.342
  O      133.499     -31.338     123.065
  H      135.492     -32.679     123.960
  H      131.850     -34.658     121.162
  H      131.911     -32.912     121.226
  H      131.045     -33.801     122.455

 6  7  8  9  10  11  12  13  14  15  26  29  33  34 0
 6-311+G(2d,p)
 ****
 36  38  39  40  41 0
 6-311+G(2d,p)
 ****
 1  2  3  4  5  16  17  18  19  20  21  22  23  24  25 0
 3-21G
 ****
 27  28  30  31  32  35  37  42  43  44  45  46  47 0
 3-21G
 ****
 48  49 0
 3-21G
 ****


