%nproc=1
%NoSave
%Mem=1900MB
#P OB98/GEN NMR

erre ene a

0 1
  C      -56.005      73.684    -105.462
  O      -56.964      74.356    -106.249
  P      -57.499      73.733    -107.623
  C      -56.501      73.183    -109.934
  O      -56.268      73.767    -108.657
  C      -55.187      73.074    -110.717
  O      -54.264      72.227    -109.964
  C      -55.373      72.447    -112.113
  O      -54.826      73.218    -113.184
  C      -54.781      71.058    -111.939
  O      -54.397      70.440    -113.152
  C      -53.671      71.320    -110.914
  N      -53.188      70.092    -110.286
  C      -52.031      69.524    -110.811
  O      -51.393      69.990    -111.751
  N      -51.642      68.337    -110.256
  C      -52.339      67.618    -109.332
  O      -51.981      66.512    -108.950
  C      -53.574      68.250    -108.843
  C      -53.928      69.447    -109.315
  O      -58.759      74.333    -108.150
  O      -57.611      72.170    -107.292
  H      -55.116      70.575    -113.798
  H      -56.776      71.747    -107.026
  H      -50.805      67.914    -110.627
  H      -54.154      67.698    -108.117
  H      -54.833      69.938    -108.973
  H      -52.823      71.833    -111.367
  H      -55.551      70.420    -111.486
  H      -56.436      72.360    -112.367
  H      -54.758      74.077    -110.788
  H      -57.197      73.816    -110.489
  H      -56.973      72.202    -109.813
  P      -55.253      73.088    -114.721
  C      -54.982      71.324    -116.612
  O      -54.754      71.667    -115.260
  O      -54.891      74.252    -115.582
  O      -56.843      72.913    -114.652
  H      -57.246      73.274    -115.465
  H      -55.065      70.236    -116.686
  H      -54.131      71.650    -117.214
  H      -55.900      71.778    -116.994
  H      -55.786      74.267    -104.592
  H      -55.110      73.544    -106.032
  H      -56.391      72.731    -105.165

 3  4  5  6  7  8  9  10  11  12  13  23  28  29  30  31  32 0
 6-311+G(2d,p)
 ****
 33  34 0
 6-311+G(2d,p)
 ****
 1  2  14  15  16  17  18  19  20  21  22  24  25  26  27 0
 3-21G
 ****
 35  36  37  38  39  40  41  42  43  44  45 0
 3-21G
 ****


