%nproc=1
%NoSave
%Mem=1900MB
#P OB98/GEN NMR

erre ene a

0 1
  C     -877.858    -535.821    -431.132
  O     -877.190    -535.151    -432.189
  H     -878.921    -535.869    -431.368
  H     -877.728    -535.266    -430.198
  H     -877.474    -536.837    -431.024
  P     -875.607    -534.949    -432.025
  C     -875.609    -535.006    -434.602
  O     -875.136    -534.344    -433.436
  C     -874.885    -534.499    -435.848
  O     -875.244    -533.117    -436.077
  C     -873.350    -534.547    -435.713
  O     -872.783    -534.931    -436.973
  C     -872.973    -533.118    -435.387
  O     -871.636    -532.809    -435.783
  C     -874.046    -532.337    -436.144
  N     -872.791    -527.400    -436.481
  C     -872.530    -528.453    -437.288
  N     -872.925    -529.730    -437.128
  C     -873.685    -529.869    -436.032
  C     -874.034    -528.884    -435.120
  C     -873.555    -527.596    -435.381
  N     -873.781    -526.513    -434.564
  N     -874.810    -529.427    -434.112
  C     -874.929    -530.697    -434.401
  N     -874.257    -531.028    -435.553
  O     -874.843    -536.136    -431.549
  O     -875.550    -533.661    -431.065
  H     -871.364    -531.976    -435.329
  H     -876.186    -532.986    -431.345
  H     -871.926    -528.249    -438.173
  H     -875.487    -531.442    -433.823
  H     -873.797    -532.183    -437.200
  H     -873.050    -532.955    -434.312
  H     -873.017    -535.241    -434.930
  H     -875.226    -535.067    -436.718
  H     -876.689    -534.840    -434.724
  H     -873.402    -525.630    -434.824
  H     -874.365    -526.638    -433.735
  H     -875.440    -536.079    -434.473
  P     -872.559    -536.482    -437.277
  C     -873.709    -536.702    -439.583
  O     -872.482    -536.690    -438.865
  O     -873.464    -537.422    -436.555
  O     -871.035    -536.701    -436.833
  H     -870.954    -537.591    -436.414
  H     -873.511    -536.848    -440.624
  H     -874.213    -535.769    -439.443
  H     -874.326    -537.498    -439.222

 6  7  8  9  10  11  12  13  14  15  25  28  32  33  34  35 0
 6-311+G(2d,p)
 ****
 36  39  40 0
 6-311+G(2d,p)
 ****
 1  2  3  4  5  16  17  18  19  20  21  22  23  24 0
 3-21G
 ****
 26  27  29  30  31  37  38  41  42  43  44  45  46  47 0
 3-21G
 ****
 48 0
 3-21G
 ****


