%nproc=1
%NoSave
%Mem=1900MB
#P OB98/GEN NMR

erre ene a

0 1
  C       26.531     -52.531      69.992
  O       26.503     -51.293      69.318
  H       25.657     -53.114      69.693
  H       26.494     -52.372      71.072
  H       27.434     -53.089      69.729
  P       27.720     -50.280      69.592
  C       28.032     -49.611      67.097
  O       27.638     -49.203      68.399
  C       26.819     -50.103      66.301
  O       25.833     -49.045      66.238
  C       27.160     -50.510      64.867
  O       26.474     -51.722      64.545
  C       26.646     -49.360      64.022
  O       26.322     -49.767      62.693
  C       25.468     -48.849      64.859
  N       25.173     -47.445      64.581
  C       24.753     -47.133      63.285
  O       24.659     -48.020      62.435
  N       24.501     -45.824      62.967
  C       24.711     -44.896      63.847
  N       24.465     -43.615      63.463
  C       25.200     -45.173      65.212
  C       25.402     -46.455      65.510
  O       29.004     -51.155      69.223
  O       27.759     -49.689      70.962
  H       25.671     -50.501      62.752
  H       29.836     -50.731      69.545
  H       25.374     -44.364      65.906
  H       25.764     -46.753      66.488
  H       24.565     -49.443      64.661
  H       27.420     -48.585      63.954
  H       28.228     -50.659      64.710
  H       26.356     -50.929      66.851
  H       24.141     -43.462      62.517
  H       28.765     -50.419      67.184
  H       24.621     -42.812      64.056
  H       28.491     -48.764      66.577
  P       27.403     -52.998      64.249
  C       25.617     -54.681      65.088
  O       26.433     -54.255      64.007
  O       28.082     -53.302      65.666
  O       28.411     -52.767      63.172
  H       28.986     -52.937      65.696
  H       25.029     -55.521      64.782
  H       24.970     -53.882      65.383
  H       26.237     -54.961      65.914

 6  7  8  9  10  11  12  13  14  15  16  26  30  31  32  33  35 0
 6-311+G(2d,p)
 ****
 37  38 0
 6-311+G(2d,p)
 ****
 1  2  3  4  5  17  18  19  20  21  22  23  24  25 0
 3-21G
 ****
 27  28  29  34  36  39  40  41  42  43  44  45  46 0
 3-21G
 ****


