%nproc=1
%NoSave
%Mem=1900MB
#P OB98/GEN NMR

erre ene a

0 1
  C      855.024    -306.150      63.362
  O      853.748    -306.703      63.002
  P      853.614    -307.935      61.982
  C      852.284    -306.601      60.212
  O      852.294    -307.733      61.087
  C      850.936    -305.885      60.229
  O      850.769    -305.128      61.454
  C      850.727    -304.895      59.091
  O      850.389    -305.577      57.889
  C      849.634    -303.999      59.663
  O      848.348    -304.618      59.502
  C      850.016    -303.932      61.143
  N      849.690    -298.950      62.265
  C      848.740    -299.881      62.009
  N      848.911    -301.193      61.713
  C      850.219    -301.516      61.725
  C      851.297    -300.680      61.972
  C      850.998    -299.325      62.253
  N      851.957    -298.379      62.512
  N      852.487    -301.361      61.865
  C      852.140    -302.606      61.578
  N      850.772    -302.748      61.492
  O      853.714    -309.284      62.628
  O      854.804    -307.725      60.929
  H      847.694    -304.083      60.003
  H      855.088    -308.594      60.570
  H      847.718    -299.532      62.040
  H      852.816    -303.424      61.447
  H      849.122    -303.953      61.784
  H      849.587    -303.019      59.165
  H      851.636    -304.301      58.935
  H      850.150    -306.644      60.224
  H      852.507    -306.941      59.201
  H      851.668    -297.434      62.662
  H      852.928    -298.644      62.445
  H      853.086    -305.920      60.543
  P      851.171    -305.260      56.529
  C      849.233    -305.409      54.844
  O      850.405    -306.032      55.357
  O      852.641    -305.463      56.565
  O      850.807    -303.721      56.235
  H      851.532    -303.303      55.743
  H      848.385    -305.604      55.525
  H      849.001    -305.832      53.860
  H      849.376    -304.339      54.748
  H      854.882    -305.342      64.049
  H      855.517    -305.788      62.484
  H      855.624    -306.907      63.821

 3  4  5  6  7  8  9  10  11  12  22  25  29  30  31  32 0
 6-311+G(2d,p)
 ****
 33  36  37 0
 6-311+G(2d,p)
 ****
 1  2  13  14  15  16  17  18  19  20  21  23  24  26 0
 3-21G
 ****
 27  28  34  35  38  39  40  41  42  43  44  45  46  47  48 0
 3-21G
 ****


