%nproc=1
%NoSave
%Mem=1900MB
#P OB98/GEN NMR

erre ene a

0 1
  C      407.785    -899.390     137.613
  O      409.145    -899.400     137.975
  H      407.686    -899.830     136.610
  H      407.399    -898.370     137.581
  H      407.194    -900.000     138.308
  P      409.544    -898.960     139.469
  C      409.215    -896.460     138.930
  O      410.121    -897.470     139.384
  C      409.724    -895.090     139.351
  O      409.774    -894.980     140.778
  C      411.144    -894.780     138.870
  O      411.180    -894.480     137.483
  C      411.526    -893.630     139.790
  O      410.993    -892.390     139.301
  C      410.824    -894.040     141.102
  N      411.768    -894.620     142.067
  C      412.577    -893.720     142.756
  O      412.528    -892.510     142.605
  N      413.512    -894.280     143.595
  C      413.800    -895.620     143.713
  O      414.787    -896.050     144.267
  C      412.865    -896.520     142.984
  C      411.923    -895.980     142.218
  O      410.410    -899.930     140.210
  O      408.125    -898.760     140.189
  H      407.938    -899.540     140.751
  H      410.018    -892.520     139.270
  H      414.125    -893.630     144.064
  H      413.009    -897.590     143.120
  H      411.251    -896.630     141.659
  H      410.342    -893.180     141.568
  H      412.607    -893.530     139.873
  H      411.801    -895.630     139.080
  H      409.018    -894.330     138.970
  H      408.233    -896.640     139.392
  H      409.113    -896.530     137.829
  P      412.406    -894.960     136.570
  C      413.726    -892.770     136.908
  O      413.111    -893.630     135.971
  O      412.103    -896.010     135.575
  O      413.500    -895.460     137.634
  H      413.815    -896.350     137.359
  H      414.154    -891.933     136.397
  H      414.495    -893.301     137.428
  H      412.995    -892.425     137.609

 6  7  8  9  10  11  12  13  14  15  16  27  31  32  33  34  35 0
 6-311+G(2d,p)
 ****
 36  37 0
 6-311+G(2d,p)
 ****
 1  2  3  4  5  17  18  19  20  21  22  23  24  25 0
 3-21G
 ****
 26  28  29  30  38  39  40  41  42  43  44  45 0
 3-21G
 ****


