%nproc=1
%NoSave
%Mem=1900MB
#P OB98/GEN NMR

erre ene a

0 1
  C     -619.170    -863.161     200.984
  O     -618.024    -863.966     201.237
  P     -617.991    -865.438     200.592
  C     -617.707    -866.638     202.882
  O     -618.533    -866.424     201.734
  C     -618.174    -867.873     203.657
  O     -619.335    -867.538     204.459
  C     -618.610    -869.030     202.792
  O     -617.495    -869.819     202.356
  C     -619.456    -869.831     203.781
  O     -618.597    -870.583     204.651
  C     -620.163    -868.735     204.557
  N     -624.723    -870.739     203.366
  C     -623.565    -871.321     203.790
  N     -622.389    -870.701     204.076
  C     -622.468    -869.378     203.851
  C     -623.555    -868.662     203.390
  C     -624.743    -869.399     203.155
  N     -625.932    -868.811     202.758
  N     -623.279    -867.331     203.293
  C     -622.005    -867.228     203.693
  N     -621.486    -868.440     204.055
  O     -616.419    -865.771     200.531
  O     -618.645    -865.559     199.251
  H     -617.970    -869.939     205.060
  H     -616.250    -866.427     199.851
  H     -623.588    -872.385     203.918
  H     -621.453    -866.299     203.736
  H     -620.254    -868.981     205.630
  H     -620.123    -870.556     203.291
  H     -619.240    -868.714     201.955
  H     -617.369    -868.175     204.355
  H     -617.764    -865.758     203.535
  H     -626.758    -869.379     202.792
  H     -625.999    -867.803     202.798
  H     -616.671    -866.775     202.554
  P     -617.750    -870.799     201.119
  C     -616.935    -872.857     202.469
  O     -617.999    -872.243     201.753
  O     -616.300    -870.918     200.450
  O     -618.787    -870.323     200.138
  H     -616.373    -871.141     199.494
  H     -617.357    -873.660     203.105
  H     -616.422    -872.140     203.120
  H     -616.220    -873.303     201.775
  H     -619.056    -862.215     201.471
  H     -620.042    -863.653     201.361
  H     -619.274    -863.009     199.930

 3  4  5  6  7  8  9  10  11  12  22  25  29  30  31  32 0
 6-311+G(2d,p)
 ****
 33  36  37 0
 6-311+G(2d,p)
 ****
 1  2  13  14  15  16  17  18  19  20  21  23  24  26 0
 3-21G
 ****
 27  28  34  35  38  39  40  41  42  43  44  45  46  47  48 0
 3-21G
 ****


