%nproc=1
%NoSave
%Mem=1900MB
#P OB98/GEN NMR

erre ene a

0 1
  C      266.133    -293.543     120.373
  O      266.598    -294.473     119.388
  P      267.647    -293.916     118.315
  C      269.658    -294.938     117.020
  O      268.413    -295.170     117.666
  C      270.092    -296.184     116.248
  O      270.668    -297.181     117.123
  C      268.938    -296.891     115.542
  O      268.541    -296.181     114.382
  C      269.563    -298.256     115.273
  O      270.424    -298.195     114.123
  C      270.405    -298.480     116.540
  N      270.419    -303.089     118.764
  C      271.204    -302.541     117.813
  N      271.134    -301.308     117.271
  C      270.132    -300.606     117.821
  C      269.252    -301.026     118.804
  C      269.418    -302.335     119.281
  N      268.608    -302.894     120.242
  N      268.354    -300.023     119.114
  C      268.674    -299.024     118.313
  N      269.751    -299.322     117.521
  O      268.765    -293.213     119.217
  O      267.051    -292.964     117.328
  H      271.225    -297.700     114.382
  H      268.704    -292.243     119.128
  H      271.996    -303.183     117.431
  H      268.158    -298.072     118.271
  H      271.375    -298.940     116.315
  H      268.819    -299.036     115.083
  H      268.084    -296.997     116.223
  H      270.848    -295.885     115.514
  H      270.422    -294.673     117.754
  H      268.747    -303.868     120.473
  H      267.809    -302.374     120.570
  H      269.550    -294.075     116.352
  P      267.294    -295.181     114.506
  C      266.189    -293.675     112.748
  O      266.895    -294.874     112.981
  O      268.012    -293.825     114.956
  O      266.189    -295.655     115.385
  H      268.811    -293.647     114.427
  H      266.013    -293.575     111.672
  H      266.774    -292.815     113.089
  H      265.224    -293.701     113.259
  H      265.442    -294.032     121.027
  H      265.646    -292.723     119.888
  H      266.964    -293.179     120.940

 3  4  5  6  7  8  9  10  11  12  22  25  29  30  31  32 0
 6-311+G(2d,p)
 ****
 33  36  37 0
 6-311+G(2d,p)
 ****
 1  2  13  14  15  16  17  18  19  20  21  23  24  26 0
 3-21G
 ****
 27  28  34  35  38  39  40  41  42  43  44  45  46  47  48 0
 3-21G
 ****


