%nproc=1
%NoSave
%Mem=1900MB
#P OB98/GEN NMR

erre ene a

0 1
  C      -55.310     141.184     197.445
  O      -55.104     142.540     197.788
  H      -55.444     141.111     196.364
  H      -56.211     140.806     197.934
  H      -54.449     140.574     197.733
  P      -54.680     142.904     199.291
  C      -52.221     143.001     198.515
  O      -53.144     142.469     199.457
  C      -51.114     143.760     199.243
  O      -50.414     142.879     200.148
  C      -50.048     144.340     198.320
  O      -50.522     145.498     197.658
  C      -48.916     144.584     199.311
  O      -49.131     145.800     200.041
  C      -49.049     143.352     200.239
  N      -48.104     142.281     199.916
  C      -46.910     142.275     200.630
  O      -46.622     143.134     201.467
  N      -46.043     141.255     200.337
  C      -46.219     140.312     199.365
  O      -45.382     139.447     199.105
  C      -47.480     140.388     198.618
  C      -48.353     141.354     198.921
  O      -55.592     142.404     200.362
  O      -54.599     144.503     199.282
  H      -48.805     146.527     199.477
  H      -55.410     144.876     199.678
  H      -45.168     141.240     200.837
  H      -47.650     139.659     197.832
  H      -49.287     141.428     198.378
  H      -48.888     143.644     201.283
  H      -47.944     144.673     198.826
  H      -49.721     143.582     197.596
  H      -51.583     144.555     199.841
  H      -52.755     143.685     197.846
  H      -51.804     142.177     197.926
  P      -49.917     145.939     196.245
  C      -52.069     145.241     195.038
  O      -50.658     145.073     195.111
  O      -48.427     145.933     196.161
  O      -50.504     147.411     196.017
  H      -49.798     148.075     196.156
  H      -52.462     144.625     194.256
  H      -52.296     146.266     194.832
  H      -52.511     144.958     195.971

 6  7  8  9  10  11  12  13  14  15  16  26  31  32  33  34  35 0
 6-311+G(2d,p)
 ****
 36  37 0
 6-311+G(2d,p)
 ****
 1  2  3  4  5  17  18  19  20  21  22  23  24  25 0
 3-21G
 ****
 27  28  29  30  38  39  40  41  42  43  44  45 0
 3-21G
 ****


