%nproc=1
%NoSave
%Mem=1900MB
#P OB98/GEN NMR

erre ene a

0 1
  C     -114.389      45.494      50.719
  O     -114.047      45.987      49.440
  H     -113.683      45.893      51.451
  H     -114.326      44.403      50.728
  H     -115.399      45.809      50.993
  P     -115.028      45.614      48.228
  C     -115.045      43.784      46.376
  O     -114.374      44.343      47.494
  C     -114.155      42.732      45.711
  O     -112.897      43.358      45.338
  C     -113.825      41.549      46.628
  O     -113.780      40.351      45.848
  C     -112.434      41.883      47.139
  O     -111.695      40.749      47.571
  C     -111.831      42.573      45.911
  N     -110.688      43.419      46.248
  C     -109.470      42.789      46.478
  O     -109.269      41.583      46.346
  N     -108.446      43.609      46.880
  C     -108.527      44.954      47.092
  O     -107.580      45.631      47.475
  C     -109.841      45.562      46.840
  C     -110.846      44.778      46.438
  O     -114.790      46.801      47.181
  O     -116.465      45.445      48.588
  H     -115.415      47.533      47.347
  H     -110.742      40.961      47.491
  H     -107.555      43.168      47.050
  H     -109.946      46.626      47.006
  H     -111.832      45.194      46.258
  H     -111.533      41.829      45.163
  H     -112.502      42.582      47.981
  H     -114.539      41.431      47.444
  H     -114.634      42.392      44.785
  H     -115.265      44.577      45.655
  H     -115.985      43.330      46.708
  P     -114.659      39.106      46.356
  C     -114.080      36.789      47.420
  O     -113.611      38.032      46.927
  O     -115.153      38.483      44.971
  O     -115.745      39.506      47.298
  H     -114.486      38.530      44.264
  H     -113.251      36.203      47.757
  H     -114.592      36.266      46.640
  H     -114.751      36.959      48.236

 6  7  8  9  10  11  12  13  14  15  16  27  31  32  33  34  35 0
 6-311+G(2d,p)
 ****
 36  37 0
 6-311+G(2d,p)
 ****
 1  2  3  4  5  17  18  19  20  21  22  23  24  25 0
 3-21G
 ****
 26  28  29  30  38  39  40  41  42  43  44  45 0
 3-21G
 ****


