%nproc=1
%NoSave
%Mem=1900MB
#P OB98/GEN NMR

erre ene a

0 1
  C      242.490     269.624     255.165
  O      242.485     269.258     256.531
  H      242.076     270.633     255.071
  H      241.878     268.938     254.576
  H      243.515     269.628     254.782
  P      242.803     267.732     256.907
  C      244.048     268.800     258.903
  O      243.192     267.745     258.464
  C      244.423     268.628     260.376
  O      245.150     267.397     260.564
  C      245.345     269.717     260.905
  O      244.728     270.987     261.019
  C      245.954     269.065     262.135
  O      245.155     269.205     263.307
  C      246.000     267.575     261.714
  N      247.365     267.120     261.459
  C      247.980     266.442     262.500
  O      247.448     266.231     263.591
  N      249.267     266.032     262.271
  C      249.993     266.281     261.141
  O      251.160     265.922     261.009
  C      249.298     267.029     260.084
  C      248.035     267.412     260.286
  O      243.807     267.042     256.035
  O      241.364     267.033     256.900
  H      245.051     270.163     263.470
  H      241.444     266.048     256.856
  H      249.726     265.525     263.009
  H      249.845     267.247     259.177
  H      247.498     267.970     259.519
  H      245.583     266.945     262.511
  H      246.937     269.482     262.367
  H      246.164     269.845     260.185
  H      243.500     268.568     260.963
  H      243.501     269.740     258.777
  H      244.946     268.827     258.275
  P      245.367     272.325     260.421
  C      243.104     273.610     260.503
  O      244.467     273.569     260.911
  O      245.814     272.278     258.998
  O      246.691     272.478     261.337
  H      247.386     272.872     260.779
  H      242.638     274.487     260.902
  H      242.597     272.740     260.866
  H      243.052     273.634     259.435

 6  7  8  9  10  11  12  13  14  15  16  26  31  32  33  34  35 0
 6-311+G(2d,p)
 ****
 36  37 0
 6-311+G(2d,p)
 ****
 1  2  3  4  5  17  18  19  20  21  22  23  24  25 0
 3-21G
 ****
 27  28  29  30  38  39  40  41  42  43  44  45 0
 3-21G
 ****


