%nproc=1
%NoSave
%Mem=1900MB
#P OB98/GEN NMR

erre ene a

0 1
  C      655.652    -171.323     348.619
  O      654.687    -170.715     347.778
  P      654.303    -169.170     347.925
  C      654.564    -168.632     345.423
  O      653.656    -168.745     346.505
  C      653.825    -168.339     344.109
  O      653.124    -169.543     343.662
  C      652.786    -167.205     344.210
  O      652.794    -166.540     342.928
  C      651.484    -167.960     344.389
  O      650.337    -167.181     344.077
  C      651.732    -169.185     343.492
  N      650.844    -170.291     343.833
  C      649.924    -170.685     342.842
  O      649.841    -170.047     341.776
  N      649.084    -171.747     343.093
  C      649.100    -172.296     344.264
  N      648.245    -173.344     344.467
  C      649.956    -171.841     345.366
  C      650.804    -170.844     345.079
  O      655.388    -168.281     348.408
  O      653.001    -169.190     348.883
  H      649.546    -167.772     344.097
  H      653.291    -169.333     349.831
  H      649.886    -172.297     346.357
  H      651.475    -170.444     345.829
  H      651.580    -168.923     342.435
  H      651.398    -168.279     345.438
  H      652.996    -166.483     345.009
  H      654.573    -168.089     343.349
  H      647.691    -173.654     343.657
  H      655.084    -169.598     345.322
  H      648.224    -173.900     345.296
  H      655.312    -167.866     345.635
  P      652.862    -164.932     342.816
  C      654.895    -165.274     341.287
  O      653.663    -164.599     341.473
  O      653.362    -164.237     344.040
  O      651.349    -164.507     342.478
  H      651.241    -163.550     342.649
  H      655.190    -165.176     340.246
  H      654.792    -166.333     341.537
  H      655.659    -164.807     341.930
  H      655.757    -172.354     348.354
  H      655.335    -171.247     349.638
  H      656.592    -170.827     348.500

 3  4  5  6  7  8  9  10  11  12  13  23  27  28  29  30  32 0
 6-311+G(2d,p)
 ****
 34  35 0
 6-311+G(2d,p)
 ****
 1  2  14  15  16  17  18  19  20  21  22  24  25  26 0
 3-21G
 ****
 31  33  36  37  38  39  40  41  42  43  44  45  46 0
 3-21G
 ****


