%nproc=1
%NoSave
%Mem=1900MB
#P OB98/GEN NMR

erre ene a

0 1
  C      -92.585     380.948      21.410
  O      -91.865     379.743      21.571
  H      -92.083     381.556      20.652
  H      -92.610     381.507      22.350
  H      -93.605     380.734      21.077
  P      -92.378     378.753      22.729
  C      -92.138     376.443      21.540
  O      -91.577     377.389      22.439
  C      -91.413     375.106      21.668
  O      -90.088     375.192      21.094
  C      -91.200     374.639      23.105
  O      -92.363     374.081      23.692
  C      -90.125     373.588      22.879
  O      -90.715     372.410      22.301
  C      -89.218     374.313      21.862
  N      -88.143     375.082      22.499
  C      -87.115     374.346      23.100
  O      -87.131     373.115      23.085
  N      -86.104     375.022      23.739
  C      -86.103     376.320      23.756
  N      -85.073     376.933      24.408
  C      -87.156     377.136      23.128
  C      -88.133     376.461      22.524
  O      -93.868     378.389      22.272
  O      -92.264     379.263      24.127
  H      -91.431     372.132      22.905
  H      -94.227     377.665      22.841
  H      -87.119     378.215      23.179
  H      -88.943     376.993      22.034
  H      -88.766     373.602      21.158
  H      -89.625     373.277      23.794
  H      -90.788     375.436      23.734
  H      -91.975     374.365      21.086
  H      -84.401     376.346      24.880
  H      -92.034     376.833      20.521
  H      -85.066     377.927      24.605
  H      -93.201     376.300      21.759
  P      -92.466     374.106      25.293
  C      -94.856     375.045      25.708
  O      -94.009     373.902      25.669
  O      -92.192     375.639      25.653
  O      -91.511     373.189      25.996
  H      -91.714     375.720      26.500
  H      -95.848     374.745      25.972
  H      -94.869     375.512      24.745
  H      -94.487     375.738      26.435

 6  7  8  9  10  11  12  13  14  15  16  26  30  31  32  33  35 0
 6-311+G(2d,p)
 ****
 37  38 0
 6-311+G(2d,p)
 ****
 1  2  3  4  5  17  18  19  20  21  22  23  24  25 0
 3-21G
 ****
 27  28  29  34  36  39  40  41  42  43  44  45  46 0
 3-21G
 ****


