%nproc=1
%NoSave
%Mem=1900MB
#P OB98/GEN NMR

erre ene a

0 1
  C       82.451      57.299     -74.663
  O       82.088      57.383     -73.301
  H       82.605      58.311     -75.048
  H       81.651      56.827     -75.238
  H       83.379      56.734     -74.786
  P       82.000      56.034     -72.440
  C       83.690      54.176     -71.854
  O       83.305      55.172     -72.793
  C       84.547      53.118     -72.542
  O       83.712      52.210     -73.291
  C       85.548      53.683     -73.544
  O       86.654      54.266     -72.880
  C       85.870      52.437     -74.355
  O       86.824      51.612     -73.668
  C       84.487      51.746     -74.420
  N       83.780      51.991     -75.676
  C       84.332      51.421     -76.819
  O       85.380      50.775     -76.808
  N       83.647      51.635     -77.985
  C       82.536      52.416     -78.128
  O       81.988      52.620     -79.208
  C       82.017      53.021     -76.893
  C       82.651      52.784     -75.744
  O       80.711      55.287     -72.533
  O       82.289      56.524     -70.943
  H       87.529      52.208     -73.348
  H       81.449      56.605     -70.456
  H       84.038      51.241     -78.825
  H       81.140      53.650     -76.969
  H       82.286      53.226     -74.823
  H       84.599      50.662     -74.298
  H       86.299      52.669     -75.329
  H       85.057      54.411     -74.199
  H       85.062      52.537     -71.764
  H       82.787      53.707     -71.448
  H       84.242      54.653     -71.039
  P       87.617      55.289     -73.641
  C       87.344      57.657     -74.578
  O       86.692      56.423     -74.304
  O       88.601      54.666     -74.574
  O       88.360      56.073     -72.460
  H       89.285      55.766     -72.389
  H       86.646      58.340     -75.015
  H       88.153      57.490     -75.258
  H       87.724      58.070     -73.667

 6  7  8  9  10  11  12  13  14  15  16  26  31  32  33  34  35 0
 6-311+G(2d,p)
 ****
 36  37 0
 6-311+G(2d,p)
 ****
 1  2  3  4  5  17  18  19  20  21  22  23  24  25 0
 3-21G
 ****
 27  28  29  30  38  39  40  41  42  43  44  45 0
 3-21G
 ****


