%nproc=1
%NoSave
%Mem=1900MB
#P OB98/GEN NMR

erre ene a

0 1
  C      291.045     -77.794    -295.092
  O      290.709     -76.847    -296.085
  H      290.150     -78.103    -294.546
  H      291.481     -78.673    -295.576
  H      291.778     -77.375    -294.398
  P      290.060     -75.470    -295.580
  C      287.790     -76.148    -296.649
  O      288.482     -75.745    -295.473
  C      286.736     -77.190    -296.290
  O      287.345     -78.290    -295.578
  C      285.626     -76.673    -295.380
  O      284.632     -75.965    -296.097
  C      285.086     -77.980    -294.829
  O      284.258     -78.617    -295.819
  C      286.374     -78.785    -294.615
  N      286.670     -80.937    -289.982
  C      286.020     -81.305    -291.107
  N      285.990     -80.674    -292.299
  C      286.723     -79.551    -292.262
  C      287.432     -79.046    -291.185
  C      287.394     -79.796    -289.998
  N      288.043     -79.415    -288.845
  N      288.037     -77.847    -291.519
  C      287.722     -77.655    -292.785
  N      286.920     -78.655    -293.275
  O      290.176     -74.508    -296.857
  O      290.674     -74.872    -294.358
  H      283.583     -77.965    -296.082
  H      290.117     -73.575    -296.580
  H      285.451     -82.227    -291.039
  H      288.048     -76.815    -293.384
  H      286.238     -79.856    -294.807
  H      284.474     -77.848    -293.935
  H      286.029     -76.074    -294.553
  H      286.320     -77.587    -297.225
  H      288.504     -76.582    -297.354
  H      287.802     -79.921    -288.006
  H      288.458     -78.495    -288.806
  H      287.321     -75.271    -297.106
  P      284.348     -74.443    -295.662
  C      281.840     -75.110    -295.458
  O      282.964     -74.474    -294.857
  O      283.962     -73.737    -297.041
  O      285.487     -73.772    -294.973
  H      284.165     -72.784    -297.012
  H      280.999     -75.046    -294.799
  H      282.070     -76.138    -295.644
  H      281.607     -74.623    -296.382

 6  7  8  9  10  11  12  13  14  15  25  28  32  33  34  35 0
 6-311+G(2d,p)
 ****
 36  39  40 0
 6-311+G(2d,p)
 ****
 1  2  3  4  5  16  17  18  19  20  21  22  23  24 0
 3-21G
 ****
 26  27  29  30  31  37  38  41  42  43  44  45  46  47 0
 3-21G
 ****
 48 0
 3-21G
 ****


