%nproc=1
%NoSave
%Mem=1900MB
#P OB98/GEN NMR

erre ene a

0 1
  C      -41.397      30.384    -346.141
  O      -41.611      29.808    -344.864
  P      -42.982      29.015    -344.625
  C      -42.141      26.592    -345.107
  O      -42.933      27.692    -345.531
  C      -43.018      25.349    -344.959
  O      -43.847      25.460    -343.778
  C      -43.983      25.144    -346.121
  O      -43.331      24.575    -347.243
  C      -45.026      24.221    -345.497
  O      -44.592      22.854    -345.538
  C      -45.068      24.735    -344.040
  N      -46.246      25.552    -343.770
  C      -47.439      24.857    -343.574
  O      -47.515      23.631    -343.643
  N      -48.546      25.622    -343.336
  C      -48.594      26.988    -343.330
  O      -49.628      27.620    -343.170
  C      -47.310      27.670    -343.572
  C      -46.219      26.934    -343.782
  O      -44.084      29.928    -345.342
  O      -43.318      28.766    -343.191
  H      -43.761      22.809    -345.027
  H      -44.923      29.893    -344.840
  H      -49.415      25.141    -343.167
  H      -47.311      28.754    -343.576
  H      -45.266      27.419    -343.976
  H      -45.071      23.889    -343.342
  H      -45.983      24.272    -346.015
  H      -44.461      26.097    -346.383
  H      -42.366      24.475    -344.840
  H      -41.670      26.831    -344.148
  H      -41.345      26.417    -345.841
  P      -44.123      24.619    -348.640
  C      -44.191      27.217    -348.922
  O      -44.890      26.027    -348.637
  O      -45.255      23.522    -348.372
  O      -43.246      24.340    -349.818
  H      -45.528      23.496    -347.445
  H      -43.409      27.053    -349.669
  H      -43.738      27.599    -348.003
  H      -44.899      27.963    -349.305
  H      -40.448      30.878    -346.155
  H      -42.171      31.093    -346.347
  H      -41.410      29.616    -346.886

 3  4  5  6  7  8  9  10  11  12  13  23  28  29  30  31  32 0
 6-311+G(2d,p)
 ****
 33  34 0
 6-311+G(2d,p)
 ****
 1  2  14  15  16  17  18  19  20  21  22  24  25  26 0
 3-21G
 ****
 27  35  36  37  38  39  40  41  42  43  44  45 0
 3-21G
 ****


