%nproc=1
%NoSave
%Mem=1900MB
#P OB98/GEN NMR

erre ene a

0 1
  C     -302.692    -708.857    -334.195
  O     -303.484    -709.172    -333.044
  P     -303.852    -710.713    -332.772
  C     -304.517    -711.946    -330.573
  O     -304.683    -710.801    -331.399
  C     -305.481    -711.896    -329.384
  O     -305.091    -710.876    -328.423
  C     -306.923    -711.559    -329.786
  O     -307.607    -712.730    -330.236
  C     -307.507    -711.098    -328.453
  O     -307.824    -712.242    -327.644
  C     -306.313    -710.317    -327.845
  N     -306.816    -705.759    -325.707
  C     -306.788    -707.015    -325.132
  N     -306.909    -707.061    -323.782
  N     -306.664    -708.124    -325.808
  C     -306.535    -707.923    -327.158
  C     -306.558    -706.730    -327.847
  C     -306.713    -705.509    -327.081
  O     -306.759    -704.379    -327.544
  N     -306.419    -706.939    -329.187
  C     -306.290    -708.240    -329.315
  N     -306.376    -708.891    -328.108
  O     -302.435    -711.359    -332.377
  O     -304.471    -711.416    -333.953
  H     -307.968    -711.909    -326.727
  H     -302.420    -712.317    -332.612
  H     -306.934    -704.939    -325.147
  H     -306.148    -708.767    -330.255
  H     -306.237    -710.461    -326.762
  H     -308.414    -710.519    -328.583
  H     -306.951    -706.239    -323.190
  H     -306.950    -710.758    -330.522
  H     -306.845    -707.964    -323.352
  H     -305.462    -712.860    -328.876
  H     -303.480    -711.994    -330.200
  H     -304.658    -712.851    -331.175
  P     -307.976    -712.837    -331.790
  C     -307.376    -714.773    -333.411
  O     -307.912    -714.400    -332.160
  O     -306.691    -712.209    -332.507
  O     -309.237    -712.127    -332.190
  H     -306.934    -711.758    -333.335
  H     -307.258    -715.879    -333.429
  H     -306.392    -714.325    -333.576
  H     -308.058    -714.497    -334.217
  H     -302.532    -707.800    -334.240
  H     -303.203    -709.178    -335.078
  H     -301.749    -709.358    -334.127

 3  4  5  6  7  8  9  10  11  12  23  26  30  31 0
 6-311+G(2d,p)
 ****
 33  35  36  37  38 0
 6-311+G(2d,p)
 ****
 1  2  13  14  15  16  17  18  19  20  21  22  24  25 0
 3-21G
 ****
 27  28  29  32  34  39  40  41  42  43  44  45  46  47  48  49 0
 3-21G
 ****


