%nproc=1
%NoSave
%Mem=1900MB
#P OB98/GEN NMR

erre ene a

0 1
  C      156.415    -245.081     935.803
  O      157.476    -245.975     936.143
  P      157.164    -247.560     936.127
  C      158.180    -248.397     933.915
  O      156.992    -248.015     934.602
  C      157.891    -249.600     932.973
  O      157.460    -250.750     933.720
  C      156.796    -249.330     931.979
  O      157.248    -248.472     930.936
  C      156.424    -250.744     931.542
  O      157.347    -251.225     930.548
  C      156.621    -251.544     932.852
  N      155.367    -251.882     933.503
  C      154.452    -252.600     932.718
  O      154.710    -252.867     931.545
  N      153.247    -252.981     933.285
  C      152.993    -252.672     934.519
  N      151.798    -253.066     935.027
  C      153.925    -251.904     935.376
  C      155.084    -251.555     934.797
  O      156.109    -248.022     937.074
  O      158.610    -248.187     936.506
  H      158.216    -251.287     930.982
  H      158.448    -249.040     936.979
  H      153.686    -251.679     936.400
  H      155.825    -250.990     935.363
  H      157.167    -252.471     932.655
  H      155.425    -250.793     931.117
  H      155.930    -248.870     932.479
  H      158.821    -249.844     932.460
  H      151.186    -253.580     934.419
  H      158.948    -248.658     934.625
  H      151.531    -252.929     936.000
  H      158.537    -247.545     933.333
  P      156.437    -247.098     930.696
  C      158.347    -245.351     930.842
  O      157.204    -245.934     931.461
  O      155.097    -247.319     931.567
  O      156.104    -246.816     929.271
  H      154.348    -246.873     931.125
  H      158.548    -244.386     931.342
  H      158.173    -245.169     929.784
  H      159.217    -246.009     930.962
  H      156.768    -244.072     935.857
  H      155.604    -245.212     936.489
  H      156.078    -245.289     934.809

 3  4  5  6  7  8  9  10  11  12  13  23  27  28  29  30  32 0
 6-311+G(2d,p)
 ****
 34  35 0
 6-311+G(2d,p)
 ****
 1  2  14  15  16  17  18  19  20  21  22  24  25  26 0
 3-21G
 ****
 31  33  36  37  38  39  40  41  42  43  44  45  46 0
 3-21G
 ****


