%nproc=1
%NoSave
%Mem=1900MB
#P OB98/GEN NMR

erre ene a

0 1
  C     -259.625     521.738    -146.617
  O     -258.685     520.737    -146.261
  P     -258.683     520.211    -144.747
  C     -257.182     520.570    -142.670
  O     -257.415     520.896    -144.033
  C     -256.046     521.408    -142.094
  O     -254.778     520.879    -142.592
  C     -256.099     522.898    -142.477
  O     -255.798     523.695    -141.325
  C     -254.954     523.057    -143.464
  O     -254.463     524.393    -143.500
  C     -253.969     522.029    -142.909
  N     -248.951     521.629    -143.392
  C     -249.720     521.781    -142.253
  N     -249.051     521.905    -141.084
  N     -251.027     521.822    -142.261
  C     -251.568     521.653    -143.491
  C     -250.912     521.489    -144.689
  C     -249.464     521.505    -144.680
  O     -248.724     521.469    -145.661
  N     -251.799     521.333    -145.728
  C     -252.987     521.417    -145.159
  N     -252.896     521.660    -143.810
  O     -258.249     518.679    -144.896
  O     -259.982     520.342    -144.027
  H     -255.246     524.978    -143.494
  H     -258.923     518.103    -144.481
  H     -247.948     521.624    -143.334
  H     -253.934     521.340    -145.681
  H     -253.514     522.400    -141.984
  H     -255.306     522.783    -144.468
  H     -248.047     521.850    -141.001
  H     -257.063     523.219    -142.901
  H     -249.593     521.995    -140.241
  H     -256.034     521.287    -141.007
  H     -256.918     519.508    -142.596
  H     -258.099     520.747    -142.097
  P     -256.476     525.148    -141.274
  C     -255.341     527.476    -141.575
  O     -255.453     526.141    -142.018
  O     -256.355     525.561    -139.731
  O     -257.890     525.174    -141.763
  H     -257.048     526.211    -139.494
  H     -255.869     527.646    -140.631
  H     -255.753     528.136    -142.332
  H     -254.278     527.713    -141.427
  H     -259.507     521.986    -147.651
  H     -259.460     522.610    -146.020
  H     -260.616     521.372    -146.448

 3  4  5  6  7  8  9  10  11  12  23  26  30  31  33  0
 6-311+G(2d,p)
 ****
 35  36  37  38 0
 6-311+G(2d,p)
 ****
 1  2  13  14  15  16  17  18  19  20  21  22  24  25  27  28  29 0
 3-21G
 ****
 32  34  39  40  41  42  43  44  45  46  47  48  49 0
 3-21G
 ****


