%nproc=1
%NoSave
%Mem=1900MB
#P OB98/GEN NMR

erre ene a

0 1
  C       89.097    -102.505      40.377
  O       89.546    -101.532      39.459
  P       89.471     -99.972      39.821
  C       87.799     -99.580      37.903
  O       88.040     -99.459      39.302
  C       86.326     -99.329      37.601
  O       85.476    -100.226      38.364
  C       85.839     -97.939      37.986
  O       86.371     -96.844      37.273
  C       84.332     -98.127      37.942
  O       83.834     -98.043      36.608
  C       84.187     -99.572      38.484
  N       83.697     -99.592      39.860
  C       82.463     -98.990      40.075
  O       81.797     -98.464      39.184
  N       82.017     -98.981      41.370
  C       82.696     -99.463      42.454
  O       82.258     -99.382      43.593
  C       84.001    -100.072      42.167
  C       84.438    -100.110      40.905
  O       90.629     -99.157      39.356
  O       89.272     -99.973      41.411
  H       84.095     -97.172      36.251
  H       88.471    -100.432      41.721
  H       81.132     -98.538      41.551
  H       84.559    -100.476      43.001
  H       85.401    -100.553      40.669
  H       83.487    -100.144      37.862
  H       83.809     -97.365      38.531
  H       86.110     -97.761      39.037
  H       86.151     -99.539      36.543
  H       88.061    -100.592      37.584
  H       88.443     -98.879      37.360
  P       86.858     -95.486      37.971
  C       84.595     -94.218      37.950
  O       85.603     -94.833      38.725
  O       87.717     -94.582      37.153
  O       87.720     -96.053      39.202
  H       88.440     -95.424      39.402
  H       83.849     -93.791      38.626
  H       84.106     -94.956      37.309
  H       85.017     -93.413      37.341
  H       89.228    -103.480      39.956
  H       88.060    -102.344      40.588
  H       89.662    -102.428      41.283

 3  4  5  6  7  8  9  10  11  12  13  23  28  29  30  31  32 0
 6-311+G(2d,p)
 ****
 33  34 0
 6-311+G(2d,p)
 ****
 1  2  14  15  16  17  18  19  20  21  22  24  25  26  27 0
 3-21G
 ****
 35  36  37  38  39  40  41  42  43  44  45 0
 3-21G
 ****


