%nproc=1
%NoSave
%Mem=1900MB
#P OB98/GEN NMR

erre ene a

0 1
  C     -222.144     254.312    -174.769
  O     -222.561     254.648    -173.458
  P     -221.757     255.722    -172.590
  C     -220.418     254.932    -170.470
  O     -220.536     254.979    -171.876
  C     -221.415     253.906    -169.916
  O     -221.527     252.784    -170.817
  C     -220.980     253.376    -168.554
  O     -221.601     254.111    -167.510
  C     -221.417     251.923    -168.609
  O     -222.820     251.803    -168.304
  C     -221.157     251.580    -170.097
  N     -219.786     251.205    -170.498
  C     -219.274     249.971    -170.125
  O     -219.907     249.129    -169.488
  N     -217.968     249.731    -170.490
  C     -217.176     250.576    -171.212
  O     -215.961     250.464    -171.319
  C     -217.859     251.735    -171.800
  C     -219.102     252.008    -171.406
  O     -222.758     256.030    -171.379
  O     -221.351     256.962    -173.313
  H     -222.950     252.173    -167.411
  H     -223.248     256.856    -171.545
  H     -217.543     248.896    -170.101
  H     -217.306     252.356    -172.494
  H     -219.615     252.878    -171.803
  H     -221.827     250.773    -170.432
  H     -220.892     251.324    -167.865
  H     -219.887     253.409    -168.463
  H     -222.405     254.378    -169.844
  H     -220.613     255.923    -170.041
  H     -219.394     254.656    -170.187
  P     -221.119     253.898    -165.998
  C     -223.048     253.061    -164.527
  O     -222.020     252.699    -165.431
  O     -221.082     255.129    -165.150
  O     -219.660     253.248    -166.168
  H     -218.974     253.941    -166.076
  H     -223.693     252.197    -164.363
  H     -223.648     253.881    -164.937
  H     -222.610     253.369    -163.572
  H     -222.809     253.580    -175.178
  H     -221.152     253.914    -174.736
  H     -222.157     255.188    -175.383

 3  4  5  6  7  8  9  10  11  12  13  23  28  29  30  31  32 0
 6-311+G(2d,p)
 ****
 33  34 0
 6-311+G(2d,p)
 ****
 1  2  14  15  16  17  18  19  20  21  22  24  25  26  27 0
 3-21G
 ****
 35  36  37  38  39  40  41  42  43  44  45 0
 3-21G
 ****


