%nproc=1
%NoSave
%Mem=1900MB
#P OB98/GEN NMR

erre ene a

0 1
  C     -326.577      34.407     -87.128
  O     -326.696      34.771     -85.762
  P     -325.353      34.921     -84.904
  C     -325.590      33.880     -82.525
  O     -325.780      35.010     -83.364
  C     -326.256      34.124     -81.167
  O     -325.674      35.281     -80.526
  C     -327.747      34.417     -81.253
  O     -328.498      33.222     -81.439
  C     -328.006      35.104     -79.925
  O     -328.203      34.140     -78.878
  C     -326.694      35.890     -79.710
  N     -326.840      37.311     -79.991
  C     -327.715      38.007     -79.164
  O     -328.355      37.467     -78.257
  N     -327.864      39.343     -79.435
  C     -327.277      40.026     -80.464
  O     -327.495      41.212     -80.691
  C     -326.382      39.230     -81.326
  C     -326.218      37.929     -81.061
  O     -324.842      36.400     -85.247
  O     -324.310      33.891     -85.200
  H     -329.081      33.740     -79.023
  H     -323.867      36.417     -85.274
  H     -328.474      39.871     -78.832
  H     -325.907      39.734     -82.160
  H     -325.575      37.324     -81.690
  H     -326.355      35.778     -78.669
  H     -328.903      35.728     -79.955
  H     -327.941      35.125     -82.076
  H     -326.071      33.250     -80.528
  H     -324.519      33.704     -82.389
  H     -326.026      32.998     -83.011
  P     -329.095      32.953     -82.902
  C     -331.433      32.714     -81.754
  O     -330.476      32.184     -82.654
  O     -328.078      31.833     -83.439
  O     -329.157      34.185     -83.745
  H     -327.760      31.262     -82.720
  H     -331.443      33.809     -81.774
  H     -331.194      32.371     -80.745
  H     -332.419      32.344     -82.033
  H     -327.551      34.346     -87.567
  H     -326.092      33.456     -87.203
  H     -325.998      35.144     -87.644

 3  4  5  6  7  8  9  10  11  12  13  23  28  29  30  31  32 0
 6-311+G(2d,p)
 ****
 33  34 0
 6-311+G(2d,p)
 ****
 1  2  14  15  16  17  18  19  20  21  22  24  25  26 0
 3-21G
 ****
 27  35  36  37  38  39  40  41  42  43  44  45 0
 3-21G
 ****


