%nproc=1
%NoSave
%Mem=1900MB
#P OB98/GEN NMR

erre ene a

0 1
  C      206.537     385.419    1768.335
  O      205.862     384.316    1767.774
  H      207.331     385.721    1767.639
  H      206.995     385.157    1769.283
  H      205.848     386.256    1768.468
  P      204.724     383.594    1768.653
  C      202.927     385.149    1767.599
  O      203.513     384.656    1768.800
  C      201.740     386.058    1767.921
  O      202.128     387.014    1768.957
  C      201.245     386.899    1766.703
  O      199.851     387.112    1766.877
  C      202.045     388.196    1766.911
  O      201.511     389.221    1766.101
  C      201.933     388.340    1768.432
  N      202.905     389.287    1768.955
  C      202.457     390.595    1769.116
  O      201.322     390.923    1768.807
  N      203.334     391.541    1769.606
  C      204.567     391.208    1769.847
  N      205.386     392.203    1770.319
  C      205.102     389.849    1769.649
  C      204.221     388.923    1769.209
  O      205.191     382.987    1769.950
  O      204.114     382.483    1767.681
  H      200.601     389.475    1766.427
  H      204.437     381.599    1767.948
  H      206.141     389.635    1769.846
  H      204.518     387.899    1769.019
  H      200.922     388.661    1768.733
  H      203.073     388.051    1766.612
  H      201.458     386.408    1765.743
  H      200.906     385.452    1768.336
  H      205.002     393.110    1770.411
  H      202.592     384.287    1767.016
  H      206.375     392.062    1770.519
  H      203.674     385.711    1767.010
  P      198.734     386.110    1766.293
  C      197.864     385.313    1768.614
  O      198.472     384.915    1767.366
  O      199.008     385.628    1764.897
  O      197.357     386.936    1766.344
  H      196.770     386.637    1765.604
  H      197.739     384.454    1769.240
  H      196.909     385.756    1768.420
  H      198.494     386.024    1769.107

 6  7  8  9  10  11  12  13  14  15  16  26  30  31  32  33  35 0
 6-311+G(2d,p)
 ****
 37  38 0
 6-311+G(2d,p)
 ****
 1  2  3  4  5  17  18  19  20  21  22  23  24  25 0
 3-21G
 ****
 27  28  29  34  36  39  40  41  42  43  44  45  46 0
 3-21G
 ****


