%nproc=1
%NoSave
%Mem=1900MB
#P OB98/GEN NMR

erre ene a

0 1
  C     -614.195      93.841    -108.605
  O     -613.597      92.557    -108.623
  H     -613.422      94.593    -108.781
  H     -614.659      94.028    -107.630
  H     -614.953      93.916    -109.394
  P     -614.559      91.314    -108.273
  C     -612.982      90.387    -106.409
  O     -614.224      91.002    -106.729
  C     -612.883      90.174    -104.902
  O     -612.852      91.444    -104.210
  C     -614.046      89.408    -104.287
  O     -613.983      88.007    -104.505
  C     -613.852      89.758    -102.821
  O     -612.746      89.010    -102.289
  C     -613.527      91.267    -102.934
  N     -614.706      92.131    -102.839
  C     -615.232      92.348    -101.566
  O     -614.716      91.829    -100.566
  N     -616.358      93.123    -101.431
  C     -616.897      93.653    -102.479
  N     -618.031      94.406    -102.287
  C     -616.374      93.458    -103.849
  C     -615.292      92.699    -103.953
  O     -613.867      90.087    -109.032
  O     -616.006      91.499    -108.574
  H     -612.662      89.271    -101.355
  H     -614.297      89.236    -108.763
  H     -616.873      93.912    -104.698
  H     -614.844      92.511    -104.928
  H     -612.808      91.565    -102.149
  H     -614.723      89.527    -102.208
  H     -615.014      89.813    -104.623
  H     -611.926      89.676    -104.698
  H     -618.392      94.476    -101.357
  H     -612.170      91.041    -106.752
  H     -618.600      94.737    -103.056
  H     -612.901      89.419    -106.918
  P     -615.267      87.138    -104.106
  C     -614.042      85.283    -102.741
  O     -614.921      86.399    -102.721
  O     -615.255      85.947    -105.175
  O     -616.568      87.892    -104.122
  H     -616.166      85.670    -105.408
  H     -613.917      84.910    -101.746
  H     -613.092      85.584    -103.131
  H     -614.455      84.515    -103.361

 6  7  8  9  10  11  12  13  14  15  16  26  30  31  32  33  35 0
 6-311+G(2d,p)
 ****
 37  38 0
 6-311+G(2d,p)
 ****
 1  2  3  4  5  17  18  19  20  21  22  23  24  25 0
 3-21G
 ****
 27  28  29  34  36  39  40  41  42  43  44  45  46 0
 3-21G
 ****


