%nproc=1
%NoSave
%Mem=1900MB
#P OB98/GEN NMR

erre ene a

0 1
  C      -38.332     304.213    -467.148
  O      -39.410     303.700    -466.380
  P      -40.917     304.147    -466.702
  C      -42.064     306.456    -466.817
  O      -41.010     305.690    -466.250
  C      -41.774     307.954    -466.705
  O      -40.750     308.342    -467.646
  C      -42.972     308.845    -467.005
  O      -43.857     308.870    -465.898
  C      -42.283     310.170    -467.291
  O      -41.962     310.878    -466.082
  C      -40.994     309.718    -468.016
  N      -41.075     309.883    -469.465
  C      -41.207     311.203    -469.920
  O      -41.290     312.136    -469.113
  N      -41.317     311.422    -471.271
  C      -41.299     310.416    -472.101
  N      -41.406     310.702    -473.420
  C      -41.187     309.014    -471.648
  C      -41.085     308.818    -470.335
  O      -41.976     303.254    -466.154
  O      -40.937     304.250    -468.301
  H      -41.309     311.565    -466.340
  H      -40.943     303.356    -468.722
  H      -41.194     308.201    -472.366
  H      -41.005     307.821    -469.924
  H      -40.129     310.285    -467.655
  H      -42.908     310.838    -467.901
  H      -43.487     308.484    -467.904
  H      -41.395     308.151    -465.687
  H      -41.509     311.674    -473.678
  H      -42.989     306.232    -466.280
  H      -41.447     309.995    -474.143
  H      -42.196     306.167    -467.870
  P      -45.358     309.391    -466.089
  C      -46.302     311.269    -467.553
  O      -45.292     310.889    -466.643
  O      -46.265     309.172    -464.930
  O      -45.878     308.559    -467.368
  H      -46.786     308.229    -467.186
  H      -46.352     312.361    -467.587
  H      -47.273     310.884    -467.242
  H      -46.058     310.897    -468.551
  H      -37.411     303.804    -466.788
  H      -38.307     305.279    -467.060
  H      -38.465     303.943    -468.175

 3  4  5  6  7  8  9  10  11  12  13  23  27  28  29  30  32 0
 6-311+G(2d,p)
 ****
 34  35 0
 6-311+G(2d,p)
 ****
 1  2  14  15  16  17  18  19  20  21  22  24  25  26 0
 3-21G
 ****
 31  33  36  37  38  39  40  41  42  43  44  45  46 0
 3-21G
 ****


