%nproc=1
%NoSave
%Mem=1900MB
#P OB98/GEN NMR

erre ene a

0 1
  C      526.176     659.925     365.401
  O      527.302     659.548     364.631
  H      526.384     659.716     366.454
  H      525.304     659.343     365.092
  H      525.974     660.991     365.282
  P      527.288     659.984     363.089
  C      526.536     658.737     360.911
  O      526.348     658.942     362.299
  C      526.633     657.237     360.614
  O      527.768     656.658     361.283
  C      525.456     656.423     361.124
  O      524.284     656.620     360.364
  C      526.014     655.011     361.009
  O      525.859     654.485     359.690
  C      527.511     655.228     361.334
  N      527.878     654.658     362.621
  C      527.735     653.253     362.717
  O      527.346     652.616     361.749
  N      528.002     652.648     363.915
  C      528.346     653.383     364.940
  N      528.564     652.715     366.110
  C      528.513     654.845     364.876
  C      528.263     655.410     363.696
  O      528.762     659.582     362.611
  O      526.934     661.416     362.847
  H      526.143     655.185     359.071
  H      529.023     658.685     362.851
  H      528.814     655.390     365.751
  H      528.352     656.485     363.574
  H      528.147     654.767     360.562
  H      525.513     654.319     361.690
  H      525.276     656.634     362.181
  H      526.761     657.107     359.527
  H      528.391     651.712     366.115
  H      527.435     659.250     360.562
  H      528.758     653.178     366.989
  H      525.680     659.179     360.385
  P      522.835     656.326     360.965
  C      521.399     654.178     361.059
  O      522.711     654.727     361.129
  O      521.689     656.946     360.242
  O      522.977     656.799     362.494
  H      523.666     656.348     363.002
  H      521.450     653.116     361.181
  H      520.967     654.407     360.107
  H      520.795     654.598     361.836

 6  7  8  9  10  11  12  13  14  15  16  26  30  31  32  33  35 0
 6-311+G(2d,p)
 ****
 37  38 0
 6-311+G(2d,p)
 ****
 1  2  3  4  5  17  18  19  20  21  22  23  24  25 0
 3-21G
 ****
 27  28  29  34  36  39  40  41  42  43  44  45  46 0
 3-21G
 ****


