%nproc=1
%NoSave
%Mem=1900MB
#P OB98/GEN NMR

erre ene a

0 1
  C     -405.809     711.357     234.685
  O     -405.659     709.985     234.978
  H     -406.357     711.831     235.504
  H     -406.387     711.475     233.765
  H     -404.843     711.850     234.579
  P     -404.628     709.120     234.116
  C     -402.561     709.509     235.613
  O     -403.513     708.571     235.126
  C     -401.293     708.793     236.109
  O     -400.211     709.758     236.197
  C     -401.491     708.210     237.512
  O     -400.668     707.072     237.740
  C     -401.024     709.343     238.416
  O     -400.623     708.899     239.712
  C     -399.885     709.944     237.582
  N     -397.238     713.396     240.231
  C     -397.298     712.028     240.403
  N     -396.547     711.514     241.415
  N     -398.038     711.234     239.674
  C     -398.783     711.905     238.752
  C     -398.828     713.255     238.502
  C     -397.969     714.116     239.303
  O     -397.897     715.334     239.203
  N     -399.706     713.553     237.496
  C     -400.207     712.384     237.137
  N     -399.655     711.348     237.853
  O     -403.821     710.222     233.273
  O     -405.241     708.088     233.217
  H     -399.995     708.161     239.580
  H     -403.422     709.823     232.480
  H     -396.631     713.958     240.808
  H     -400.946     712.234     236.362
  H     -398.944     709.411     237.778
  H     -401.856     710.044     238.553
  H     -396.133     712.102     242.114
  H     -402.523     707.949     237.717
  H     -396.818     710.583     241.747
  H     -400.980     708.033     235.380
  H     -403.037     710.051     236.433
  H     -402.315     710.237     234.839
  P     -401.367     705.687     238.148
  C     -402.283     704.691     235.870
  O     -401.329     704.676     236.907
  O     -402.915     706.069     238.278
  O     -400.837     705.067     239.395
  H     -403.215     705.958     239.196
  H     -402.049     703.927     235.159
  H     -402.268     705.645     235.386
  H     -403.256     704.513     236.278

 6  7  8  9  10  11  12  13  14  15  26  29  33  34 0
 6-311+G(2d,p)
 ****
 36  38  39  40  41 0
 6-311+G(2d,p)
 ****
 1  2  3  4  5  16  17  18  19  20  21  22  23  24  25 0
 3-21G
 ****
 27  28  30  31  32  35  37  42  43  44  45  46  47 0
 3-21G
 ****
 48  49 0
 3-21G
 ****


