%nproc=1
%NoSave
%Mem=1900MB
#P OB98/GEN NMR

erre ene a

0 1
  C       -0.813    -246.741     117.225
  O       -2.116    -246.389     116.790
  P       -3.098    -247.564     116.314
  C       -4.533    -247.144     118.451
  O       -3.868    -248.086     117.624
  C       -6.041    -247.424     118.487
  O       -6.236    -248.813     118.866
  C       -6.836    -246.572     119.489
  O       -8.136    -246.373     118.922
  C       -6.939    -247.470     120.707
  O       -8.014    -247.107     121.570
  C       -7.086    -248.831     120.038
  N       -8.721    -252.522     123.097
  C       -9.436    -251.535     122.443
  N      -10.784    -251.573     122.576
  N       -8.883    -250.592     121.716
  C       -7.529    -250.695     121.669
  C       -6.710    -251.591     122.304
  C       -7.334    -252.650     123.069
  O       -6.754    -253.590     123.598
  N       -5.386    -251.314     122.081
  C       -5.399    -250.298     121.244
  N       -6.685    -249.912     120.929
  O       -2.086    -248.757     115.968
  O       -4.007    -247.233     115.167
  H       -7.856    -246.186     121.874
  H       -1.860    -248.764     115.024
  H       -9.209    -253.233     123.626
  H       -4.539    -249.802     120.836
  H       -8.113    -249.037     119.713
  H       -6.010    -247.409     121.285
  H      -11.274    -252.293     123.088
  H       -6.364    -245.610     119.704
  H      -11.331    -250.885     122.069
  H       -6.439    -247.303     117.473
  H       -4.381    -246.137     118.040
  H       -4.113    -247.172     119.462
  P       -8.918    -245.021     119.300
  C       -9.091    -243.907     116.963
  O       -8.485    -243.896     118.243
  O       -8.199    -244.557     120.652
  O      -10.389    -245.189     119.510
  H       -8.845    -244.101     121.232
  H       -9.012    -242.904     116.522
  H      -10.144    -244.186     117.014
  H       -8.563    -244.615     116.317
  H       -0.281    -245.857     117.508
  H       -0.292    -247.232     116.430
  H       -0.883    -247.400     118.065

 3  4  5  6  7  8  9  10  11  12  23  26  30  31 0
 6-311+G(2d,p)
 ****
 33  35  36  37  38 0
 6-311+G(2d,p)
 ****
 1  2  13  14  15  16  17  18  19  20  21  22  24  25 0
 3-21G
 ****
 27  28  29  32  34  39  40  41  42  43  44  45  46  47  48  49 0
 3-21G
 ****


