%nproc=1
%NoSave
%Mem=1900MB
#P OB98/GEN NMR

erre ene a

0 1
  C     -450.116     414.901    -306.756
  O     -449.596     413.582    -306.676
  P     -449.607     412.771    -305.289
  C     -447.286     413.547    -304.494
  O     -448.694     413.642    -304.298
  C     -446.570     413.555    -303.144
  O     -446.642     414.891    -302.595
  C     -447.161     412.649    -302.067
  O     -446.729     411.295    -302.131
  C     -446.598     413.295    -300.808
  O     -445.229     412.896    -300.630
  C     -446.680     414.785    -301.150
  N     -449.209     416.234    -296.945
  C     -447.992     415.667    -297.119
  N     -447.400     415.294    -298.273
  C     -448.173     415.601    -299.326
  C     -449.429     416.183    -299.305
  C     -449.951     416.510    -298.042
  N     -451.182     417.113    -297.869
  N     -449.923     416.326    -300.590
  C     -448.971     415.850    -301.365
  N     -447.892     415.408    -300.649
  O     -449.240     411.330    -305.414
  O     -451.079     412.994    -304.713
  H     -444.750     413.155    -301.439
  H     -451.264     412.335    -304.015
  H     -447.423     415.488    -296.213
  H     -449.021     415.798    -302.444
  H     -445.826     415.352    -300.761
  H     -447.135     413.003    -299.902
  H     -448.256     412.714    -302.046
  H     -445.511     413.319    -303.315
  H     -446.964     414.417    -305.078
  H     -451.417     417.426    -296.940
  H     -451.660     417.461    -298.685
  H     -447.053     412.643    -305.059
  P     -447.786     410.164    -301.685
  C     -447.180     409.868    -299.157
  O     -448.050     410.415    -300.127
  O     -447.403     408.779    -302.062
  O     -449.144     410.666    -302.375
  H     -449.511     411.489    -302.020
  H     -447.440     410.279    -298.180
  H     -446.146     410.116    -299.379
  H     -447.301     408.778    -299.120
  H     -450.017     415.263    -307.758
  H     -449.573     415.539    -306.090
  H     -451.150     414.894    -306.480

 3  4  5  6  7  8  9  10  11  12  22  25  29  30  31  32 0
 6-311+G(2d,p)
 ****
 33  36  37 0
 6-311+G(2d,p)
 ****
 1  2  13  14  15  16  17  18  19  20  21  23  24  26 0
 3-21G
 ****
 27  28  34  35  38  39  40  41  42  43  44  45  46  47  48 0
 3-21G
 ****


