%nproc=1
%NoSave
%Mem=1900MB
#P OB98/GEN NMR

erre ene a

0 1
  C     -366.584    -212.263     148.534
  O     -367.421    -211.443     149.335
  P     -367.296    -209.851     149.187
  C     -365.349    -208.131     149.565
  O     -365.826    -209.454     149.694
  C     -363.854    -208.132     149.209
  O     -363.658    -208.889     147.980
  C     -363.239    -206.741     148.998
  O     -361.897    -206.786     149.487
  C     -363.258    -206.597     147.479
  O     -362.323    -205.639     147.011
  C     -362.948    -208.037     147.056
  N     -363.345    -208.341     145.677
  C     -362.934    -207.468     144.678
  O     -362.275    -206.450     144.880
  N     -363.335    -207.790     143.405
  C     -364.149    -208.838     143.056
  O     -364.495    -209.072     141.897
  C     -364.592    -209.694     144.164
  C     -364.172    -209.422     145.396
  O     -368.263    -209.356     150.368
  O     -367.647    -209.348     147.826
  H     -368.239    -209.931     151.147
  H     -362.457    -205.512     146.062
  H     -363.020    -207.200     142.652
  H     -365.251    -210.531     143.931
  H     -364.484    -210.036     146.237
  H     -361.878    -208.246     147.184
  H     -364.260    -206.286     147.153
  H     -363.798    -205.954     149.518
  H     -363.314    -208.670     150.014
  H     -365.483    -207.598     150.504
  H     -365.924    -207.610     148.791
  P     -361.270    -205.438     150.111
  C     -360.370    -203.181     149.122
  O     -360.911    -204.464     148.889
  O     -359.832    -205.976     150.571
  O     -362.051    -204.837     151.236
  H     -359.381    -206.487     149.885
  H     -359.890    -202.825     148.200
  H     -359.626    -203.198     149.922
  H     -361.176    -202.488     149.387
  H     -366.785    -213.292     148.746
  H     -365.559    -212.047     148.752
  H     -366.778    -212.068     147.500

 3  4  5  6  7  8  9  10  11  12  13  24  28  29  30  31  32 0
 6-311+G(2d,p)
 ****
 33  34 0
 6-311+G(2d,p)
 ****
 1  2  14  15  16  17  18  19  20  21  22  23  25  26  27 0
 3-21G
 ****
 35  36  37  38  39  40  41  42  43  44  45 0
 3-21G
 ****


