%nproc=1
%NoSave
%Mem=1900MB
#P OB98/GEN NMR

erre ene a

0 1
  C       64.044    1109.499     238.877
  O       62.871    1109.812     238.151
  H       64.250    1108.426     238.749
  H       63.896    1109.695     239.941
  H       64.900    1110.066     238.495
  P       62.429    1111.349     238.034
  C       63.297    1111.416     235.603
  O       62.200    1111.655     236.483
  C       62.773    1110.899     234.256
  O       62.236    1109.566     234.408
  C       61.647    1111.739     233.671
  O       62.139    1112.934     233.097
  C       61.048    1110.752     232.672
  O       61.818    1110.721     231.456
  C       61.169    1109.418     233.435
  N       59.923    1109.001     234.073
  C       58.993    1108.345     233.268
  O       59.182    1108.151     232.067
  N       57.834    1107.965     233.882
  C       57.470    1108.258     235.173
  O       56.368    1107.979     235.649
  C       58.478    1108.983     235.958
  C       59.643    1109.297     235.389
  O       63.302    1112.329     238.753
  O       60.939    1111.355     238.634
  H       62.747    1110.601     231.721
  H       60.951    1111.742     239.534
  H       57.151    1107.506     233.305
  H       58.223    1109.212     236.995
  H       60.398    1109.835     235.964
  H       61.489    1108.613     232.752
  H       60.024    1111.012     232.400
  H       60.894    1111.957     234.437
  H       63.626    1110.847     233.554
  H       63.944    1110.666     236.054
  H       63.849    1112.348     235.466
  P       61.210    1114.236     233.055
  C       62.358    1115.180     235.167
  O       61.999    1115.423     233.798
  O       59.792    1114.036     233.508
  O       61.260    1114.685     231.522
  H       60.359    1114.676     231.149
  H       62.875    1116.032     235.557
  H       62.994    1114.321     235.222
  H       61.473    1115.006     235.742

 6  7  8  9  10  11  12  13  14  15  16  26  31  32  33  34  35 0
 6-311+G(2d,p)
 ****
 36  37 0
 6-311+G(2d,p)
 ****
 1  2  3  4  5  17  18  19  20  21  22  23  24  25 0
 3-21G
 ****
 27  28  29  30  38  39  40  41  42  43  44  45 0
 3-21G
 ****


