%nproc=1
%NoSave
%Mem=1900MB
#P OB98/GEN NMR

erre ene a

0 1
  C       31.719     140.094    -141.622
  O       31.083     141.259    -142.108
  H       32.522     139.792    -142.300
  H       32.148     140.311    -140.642
  H       30.993     139.282    -141.517
  P       30.357     141.139    -143.534
  C       31.147     141.387    -145.994
  O       31.522     141.214    -144.635
  C       32.004     142.469    -146.642
  O       31.711     143.754    -146.057
  C       33.508     142.277    -146.477
  O       34.024     141.332    -147.402
  C       34.008     143.681    -146.777
  O       34.031     143.896    -148.201
  C       32.921     144.554    -146.129
  N       36.080     147.506    -143.395
  C       35.941     147.324    -144.726
  N       35.063     146.537    -145.381
  C       34.255     145.907    -144.511
  C       34.260     146.007    -143.131
  C       35.232     146.849    -142.565
  N       35.408     146.974    -141.195
  N       33.288     145.196    -142.578
  C       32.722     144.602    -143.607
  N       33.266     145.005    -144.796
  O       29.608     142.550    -143.671
  O       29.411     139.994    -143.670
  H       34.125     144.857    -148.337
  H       28.678     142.446    -143.398
  H       36.631     147.883    -145.350
  H       31.923     143.876    -143.540
  H       32.689     145.438    -146.732
  H       35.021     143.864    -146.406
  H       33.768     142.016    -145.444
  H       31.733     142.520    -147.705
  H       30.094     141.681    -146.047
  H       36.362     147.197    -140.929
  H       34.932     146.268    -140.646
  H       31.277     140.435    -146.517
  P       35.606     141.063    -147.391
  C       37.677     142.208    -148.436
  O       36.258     142.142    -148.387
  O       35.739     139.681    -148.188
  O       36.228     140.971    -146.040
  H       36.207     139.027    -147.636
  H       37.975     142.962    -149.134
  H       38.068     141.261    -148.746
  H       38.057     142.450    -147.465

 6  7  8  9  10  11  12  13  14  15  25  28  32  33  34  35 0
 6-311+G(2d,p)
 ****
 36  39  40 0
 6-311+G(2d,p)
 ****
 1  2  3  4  5  16  17  18  19  20  21  22  23  24 0
 3-21G
 ****
 26  27  29  30  31  37  38  41  42  43  44  45  46  47  48 0
 3-21G
 ****


