%nproc=1
%NoSave
%Mem=1900MB
#P OB98/GEN NMR

erre ene a

0 1
  C      214.183     226.887     307.535
  O      213.218     225.860     307.596
  H      214.610     227.028     308.532
  H      213.714     227.823     307.223
  H      214.985     226.623     306.842
  P      212.570     225.371     306.210
  C      210.373     226.755     306.248
  O      211.662     226.583     305.677
  C      209.579     227.801     305.465
  O      210.320     229.047     305.460
  C      209.312     227.405     304.010
  O      207.998     227.843     303.651
  C      210.339     228.202     303.227
  O      209.939     228.441     301.877
  C      210.475     229.463     304.088
  N      211.757     230.128     303.867
  C      211.971     230.671     302.596
  O      211.106     230.567     301.724
  N      213.176     231.263     302.322
  C      214.120     231.237     303.211
  N      215.303     231.815     302.868
  C      213.963     230.616     304.539
  C      212.765     230.094     304.800
  O      211.494     224.282     306.669
  O      213.536     224.833     305.210
  H      210.664     228.921     301.422
  H      211.389     223.583     305.996
  H      214.789     230.598     305.237
  H      212.559     229.610     305.748
  H      209.667     230.172     303.866
  H      211.289     227.655     303.204
  H      209.400     226.329     303.830
  H      208.638     227.990     305.996
  H      215.378     232.214     301.940
  H      210.486     227.096     307.281
  H      216.120     231.815     303.461
  H      209.846     225.796     306.249
  P      206.905     226.695     303.382
  C      206.819     225.914     300.908
  O      207.430     225.774     302.184
  O      205.681     227.497     302.737
  O      206.496     225.963     304.618
  H      204.945     227.550     303.376
  H      207.275     225.236     300.218
  H      206.947     226.918     300.559
  H      205.775     225.694     300.986

 6  7  8  9  10  11  12  13  14  15  16  26  30  31  32  33  35 0
 6-311+G(2d,p)
 ****
 37  38 0
 6-311+G(2d,p)
 ****
 1  2  3  4  5  17  18  19  20  21  22  23  24  25 0
 3-21G
 ****
 27  28  29  34  36  39  40  41  42  43  44  45  46 0
 3-21G
 ****


