%nproc=1
%NoSave
%Mem=1900MB
#P OB98/GEN NMR

erre ene a

0 1
  C     -153.590     286.227     -56.446
  O     -154.950     286.627     -56.464
  P     -156.053     285.482     -56.703
  C     -156.433     285.535     -54.126
  O     -156.245     284.733     -55.291
  C     -157.728     285.161     -53.398
  O     -157.784     283.721     -53.251
  C     -157.863     285.784     -52.008
  O     -159.238     286.121     -51.807
  C     -157.487     284.652     -51.069
  O     -158.064     284.821     -49.776
  C     -158.012     283.434     -51.855
  N     -157.351     282.196     -51.448
  C     -157.943     281.477     -50.400
  O     -158.920     281.941     -49.811
  N     -157.378     280.286     -50.007
  C     -156.264     279.901     -50.547
  N     -155.746     278.710     -50.133
  C     -155.546     280.684     -51.572
  C     -156.149     281.795     -51.986
  O     -155.267     284.406     -57.588
  O     -157.305     285.954     -57.364
  H     -159.042     284.859     -49.878
  H     -155.870     283.949     -58.200
  H     -154.599     280.332     -51.963
  H     -155.709     282.425     -52.755
  H     -159.094     283.318     -51.711
  H     -156.399     284.596     -50.963
  H     -157.245     286.677     -51.881
  H     -158.575     285.459     -54.032
  H     -156.251     278.199     -49.416
  H     -156.503     286.586     -54.430
  H     -154.879     278.327     -50.493
  H     -155.573     285.427     -53.466
  P     -159.572     287.411     -50.917
  C     -160.655     288.491     -52.984
  O     -159.679     288.621     -51.968
  O     -158.147     287.704     -50.230
  O     -160.651     287.307     -49.891
  H     -158.233     288.447     -49.605
  H     -160.708     289.432     -53.541
  H     -161.633     288.280     -52.549
  H     -160.369     287.696     -53.680
  H     -152.969     287.082     -56.279
  H     -153.337     285.780     -57.385
  H     -153.437     285.517     -55.660

 3  4  5  6  7  8  9  10  11  12  13  21  23  27  28  29  30  32 0
 6-311+G(2d,p)
 ****
 34  35 0
 6-311+G(2d,p)
 ****
 1  2  14  15  16  17  18  19  20  22  24  25  26 0
 3-21G
 ****
 31  33  36  37  38  39  40  41  42  43  44  45  46 0
 3-21G
 ****


