%nproc=1
%NoSave
%Mem=1900MB
#P OB98/GEN NMR

erre ene a

0 1
  C      320.222     273.905     172.630
  O      320.015     275.282     172.865
  H      320.562     273.772     171.600
  H      319.285     273.360     172.764
  H      320.984     273.509     173.306
  P      319.709     275.717     174.380
  C      322.035     275.878     175.523
  O      320.880     275.087     175.279
  C      322.270     276.015     177.025
  O      321.216     276.796     177.630
  C      322.307     274.691     177.779
  O      323.583     274.069     177.693
  C      322.022     275.167     179.193
  O      323.211     275.756     179.759
  C      320.959     276.246     178.954
  N      316.333     276.990     180.889
  C      317.500     277.704     181.081
  N      317.428     278.762     181.915
  N      318.638     277.404     180.511
  C      318.565     276.316     179.711
  C      317.468     275.528     179.442
  C      316.212     275.874     180.071
  O      315.146     275.289     179.918
  N      317.778     274.515     178.572
  C      319.065     274.676     178.332
  N      319.591     275.749     179.006
  O      318.431     274.831     174.768
  O      319.446     277.169     174.590
  H      323.911     275.081     179.707
  H      317.852     275.356     175.355
  H      315.486     277.256     181.363
  H      319.658     274.047     177.682
  H      321.029     277.070     179.671
  H      321.720     274.357     179.857
  H      316.597     279.017     182.424
  H      321.505     274.020     177.450
  H      318.262     279.322     182.045
  H      323.210     276.568     177.168
  H      321.888     276.873     175.087
  H      322.898     275.403     175.047
  P      323.677     272.510     178.077
  C      322.745     271.741     175.779
  O      322.558     271.779     177.189
  O      323.063     272.466     179.554
  O      325.047     271.929     178.018
  H      323.389     271.677     180.029
  H      321.925     271.225     175.324
  H      323.657     271.229     175.554
  H      322.793     272.740     175.399

 6  7  8  9  10  11  12  13  14  15  26  29  33  34 0
 6-311+G(2d,p)
 ****
 36  38  39  40  41 0
 6-311+G(2d,p)
 ****
 1  2  3  4  5  16  17  18  19  20  21  22  23  24  25 0
 3-21G
 ****
 27  28  30  31  32  35  37  42  43  44  45  46  47 0
 3-21G
 ****
 48  49 0
 3-21G
 ****


