%nproc=1
%NoSave
%Mem=1900MB
#P OB98/GEN NMR

erre ene a

0 1
  C      158.561    -360.909    -143.250
  O      158.908    -359.788    -144.076
  P      159.757    -358.577    -143.442
  C      161.974    -357.393    -144.172
  O      160.753    -358.006    -144.562
  C      162.629    -356.705    -145.375
  O      163.207    -357.696    -146.263
  C      161.669    -355.907    -146.245
  O      161.331    -354.659    -145.657
  C      162.470    -355.773    -147.533
  O      163.407    -354.684    -147.445
  C      163.208    -357.124    -147.591
  N      162.630    -358.046    -148.564
  C      163.113    -357.957    -149.866
  O      163.942    -357.122    -150.219
  N      162.584    -358.847    -150.761
  C      161.588    -359.751    -150.504
  O      161.143    -360.506    -151.355
  C      161.059    -359.741    -149.131
  C      161.592    -358.901    -148.239
  O      160.767    -359.354    -142.468
  O      158.967    -357.558    -142.684
  H      163.904    -354.672    -148.284
  H      161.017    -358.772    -141.727
  H      162.942    -358.822    -151.701
  H      160.254    -360.425    -148.894
  H      161.212    -358.879    -147.223
  H      164.267    -356.967    -147.849
  H      161.836    -355.577    -148.406
  H      160.768    -356.495    -146.445
  H      163.441    -356.062    -145.003
  H      162.649    -358.154    -143.778
  H      161.766    -356.662    -143.382
  P      159.980    -354.612    -144.793
  C      158.571    -352.652    -143.784
  O      159.694    -353.057    -144.538
  O      160.499    -355.176    -143.382
  O      158.865    -355.399    -145.403
  H      161.419    -354.917    -143.202
  H      158.339    -353.373    -142.996
  H      157.706    -352.545    -144.447
  H      158.789    -351.681    -143.322
  H      158.001    -361.616    -143.826
  H      157.969    -360.574    -142.424
  H      159.453    -361.373    -142.885

 3  4  5  6  7  8  9  10  11  12  13  23  28  29  30  31  32 0
 6-311+G(2d,p)
 ****
 33  34 0
 6-311+G(2d,p)
 ****
 1  2  14  15  16  17  18  19  20  21  22  24  25  26 0
 3-21G
 ****
 27  35  36  37  38  39  40  41  42  43  44  45 0
 3-21G
 ****


