%nproc=1
%NoSave
%Mem=1900MB
#P OB98/GEN NMR

erre ene a

0 1
  C     -208.767    -314.058     166.563
  O     -208.669    -313.960     167.970
  H     -207.755    -314.072     166.145
  H     -209.304    -313.191     166.158
  H     -209.282    -314.980     166.288
  P     -210.057    -313.883     168.781
  C     -208.906    -312.194     170.351
  O     -209.630    -313.413     170.258
  C     -207.958    -312.218     171.551
  O     -208.739    -312.091     172.765
  C     -207.148    -313.519     171.661
  O     -205.828    -313.217     172.116
  C     -207.883    -314.309     172.732
  O     -207.041    -315.245     173.393
  C     -208.419    -313.188     173.629
  N     -210.216    -316.723     176.845
  C     -208.973    -316.475     176.374
  N     -208.578    -315.505     175.536
  C     -209.620    -314.701     175.199
  C     -210.944    -314.832     175.595
  C     -211.221    -315.912     176.448
  N     -212.497    -316.189     176.904
  N     -211.712    -313.853     175.007
  C     -210.875    -313.133     174.290
  N     -209.600    -313.617     174.367
  O     -210.908    -315.107     168.724
  O     -210.722    -312.556     168.176
  H     -206.443    -314.748     173.992
  H     -210.063    -311.840     168.095
  H     -208.193    -317.156     176.727
  H     -211.139    -312.258     173.695
  H     -207.674    -312.853     174.366
  H     -208.715    -314.860     172.273
  H     -207.100    -314.059     170.716
  H     -207.295    -311.344     171.495
  H     -209.606    -311.350     170.456
  H     -212.624    -316.974     177.526
  H     -213.267    -315.587     176.632
  H     -208.340    -312.060     169.423
  P     -204.666    -313.117     171.028
  C     -202.808    -314.494     172.214
  O     -203.244    -313.197     171.790
  O     -204.778    -312.030     170.023
  O     -204.730    -314.565     170.315
  H     -204.543    -314.447     169.365
  H     -201.859    -314.410     172.702
  H     -202.715    -315.135     171.362
  H     -203.524    -314.906     172.895

 6  7  8  9  10  11  12  13  14  15  25  28  32  33  34  35 0
 6-311+G(2d,p)
 ****
 36  39  40 0
 6-311+G(2d,p)
 ****
 1  2  3  4  5  16  17  18  19  20  21  22  23  24 0
 3-21G
 ****
 26  27  29  30  31  37  38  41  42  43  44  45  46  47 0
 3-21G
 ****
 48 0
 3-21G
 ****


