%nproc=1
%NoSave
%Mem=1900MB
#P OB98/GEN NMR

erre ene a

0 1
  C     -308.732     119.124     106.378
  O     -307.499     119.493     105.794
  H     -308.540     118.729     107.379
  H     -309.206     118.342     105.776
  H     -309.403     119.982     106.462
  P     -307.510     120.421     104.491
  C     -307.775     122.843     105.339
  O     -306.873     121.835     104.909
  C     -307.045     123.922     106.159
  O     -306.387     123.301     107.291
  C     -305.954     124.588     105.316
  O     -305.707     125.934     105.721
  C     -304.729     123.742     105.624
  O     -303.503     124.420     105.364
  C     -304.965     123.410     107.096
  N     -302.122     121.133     110.659
  C     -302.463     122.461     110.539
  N     -301.965     123.300     111.476
  N     -303.216     122.930     109.572
  C     -303.578     121.991     108.669
  C     -303.279     120.647     108.665
  C     -302.481     120.135     109.759
  O     -302.130     118.964     109.909
  N     -303.810     120.015     107.568
  C     -304.422     120.973     106.902
  N     -304.321     122.188     107.536
  O     -309.061     120.782     104.294
  O     -306.928     119.806     103.252
  H     -303.434     124.544     104.399
  H     -309.244     120.999     103.362
  H     -301.555     120.818     111.428
  H     -304.949     120.842     105.965
  H     -304.594     124.225     107.739
  H     -304.750     122.855     104.977
  H     -301.250     123.020     112.126
  H     -306.194     124.575     104.252
  H     -301.961     124.296     111.240
  H     -307.767     124.640     106.563
  H     -308.538     122.358     105.954
  H     -308.281     123.295     104.481
  P     -306.417     127.100     104.885
  C     -308.953     127.230     105.563
  O     -307.622     127.674     105.774
  O     -307.143     126.322     103.696
  O     -305.474     128.145     104.387
  H     -306.657     126.452     102.857
  H     -309.607     127.726     106.249
  H     -309.006     126.173     105.720
  H     -309.250     127.457     104.560

 6  7  8  9  10  11  12  13  14  15  26  29  33  34 0
 6-311+G(2d,p)
 ****
 36  38  39  40  41 0
 6-311+G(2d,p)
 ****
 1  2  3  4  5  16  17  18  19  20  21  22  23  24  25 0
 3-21G
 ****
 27  28  30  31  32  35  37  42  43  44  45  46  47 0
 3-21G
 ****
 48  49 0
 3-21G
 ****


