%nproc=1
%NoSave
%Mem=1900MB
#P OB98/GEN NMR

erre ene a

0 1
  C      199.710     644.614     509.289
  O      200.321     643.863     508.265
  P      201.347     642.672     508.582
  C      199.500     640.918     508.207
  O      200.437     641.444     509.123
  C      199.765     639.438     507.916
  O      199.773     638.685     509.173
  C      198.751     638.759     506.982
  O      199.498     637.788     506.227
  C      197.817     638.075     507.952
  O      197.049     637.043     507.345
  C      198.791     637.617     509.039
  N      198.134     637.335     510.299
  C      198.322     636.047     510.832
  O      198.983     635.214     510.192
  N      197.745     635.731     512.042
  C      196.949     636.582     512.603
  N      196.405     636.210     513.806
  C      196.621     637.898     512.015
  C      197.257     638.208     510.896
  O      202.486     643.039     509.478
  O      201.793     642.154     507.131
  H      196.804     636.384     508.051
  H      202.461     642.778     506.743
  H      195.903     638.544     512.504
  H      197.062     639.150     510.394
  H      199.337     636.725     508.713
  H      197.105     638.813     508.367
  H      198.241     639.469     506.315
  H      200.790     639.350     507.510
  H      196.674     635.310     514.173
  H      199.585     641.473     507.265
  H      195.848     636.839     514.367
  H      198.483     641.062     508.583
  P      198.966     637.273     504.803
  C      200.300     639.048     503.541
  O      199.015     638.514     503.794
  O      197.642     636.539     504.842
  O      200.137     636.318     504.261
  H      199.789     635.762     503.536
  H      200.259     639.693     502.650
  H      201.028     638.256     503.371
  H      200.612     639.656     504.407
  H      199.068     645.352     508.855
  H      200.464     645.097     509.875
  H      199.135     643.963     509.914

 3  4  5  6  7  8  9  10  11  12  13  23  27  28  29  30  32 0
 6-311+G(2d,p)
 ****
 34  35 0
 6-311+G(2d,p)
 ****
 1  2  14  15  16  17  18  19  20  21  22  24  25  26 0
 3-21G
 ****
 31  33  36  37  38  39  40  41  42  43  44  45  46 0
 3-21G
 ****


