%nproc=1
%NoSave
%Mem=1900MB
#P OB98/GEN NMR

erre ene a

0 1
  C     -930.617    -914.967    -304.624
  O     -929.448    -915.598    -305.107
  H     -930.420    -914.503    -303.650
  H     -930.917    -914.188    -305.329
  H     -931.430    -915.696    -304.530
  P     -928.821    -916.754    -304.189
  C     -929.800    -919.031    -304.984
  O     -929.941    -917.901    -304.132
  C     -930.965    -919.988    -304.746
  O     -931.037    -920.351    -303.350
  C     -932.327    -919.395    -305.094
  O     -932.617    -919.469    -306.477
  C     -933.237    -920.300    -304.286
  O     -933.391    -921.562    -304.959
  C     -932.439    -920.474    -302.990
  N     -935.916    -918.974    -299.539
  C     -935.871    -920.039    -300.378
  N     -934.899    -920.382    -301.239
  C     -933.894    -919.499    -301.205
  C     -933.798    -918.364    -300.413
  C     -934.876    -918.107    -299.548
  N     -934.939    -917.005    -298.727
  N     -932.623    -917.686    -300.667
  C     -932.015    -918.405    -301.590
  N     -932.759    -919.490    -301.969
  O     -928.861    -916.137    -302.713
  O     -927.462    -917.236    -304.585
  H     -933.769    -921.375    -305.837
  H     -928.301    -916.658    -302.113
  H     -936.729    -920.709    -300.326
  H     -931.047    -918.181    -302.019
  H     -932.580    -921.470    -302.539
  H     -934.245    -919.885    -304.160
  H     -932.425    -918.367    -304.717
  H     -930.781    -920.906    -305.319
  H     -928.857    -919.538    -304.754
  H     -935.819    -916.832    -298.256
  H     -934.249    -916.278    -298.825
  H     -929.789    -918.702    -306.026
  P     -933.957    -918.739    -306.986
  C     -933.064    -916.762    -308.417
  O     -933.596    -917.182    -307.159
  O     -934.894    -918.760    -305.691
  O     -934.611    -919.396    -308.167
  H     -935.836    -918.826    -305.942
  H     -932.872    -915.710    -308.390
  H     -933.770    -916.976    -309.192
  H     -932.152    -917.286    -308.611

 6  7  8  9  10  11  12  13  14  15  25  28  32  33  34  35 0
 6-311+G(2d,p)
 ****
 36  39  40 0
 6-311+G(2d,p)
 ****
 1  2  3  4  5  16  17  18  19  20  21  22  23  24 0
 3-21G
 ****
 26  27  29  30  31  37  38  41  42  43  44  45  46  47 0
 3-21G
 ****
 48 0
 3-21G
 ****


