%nproc=1
%NoSave
%Mem=1900MB
#P OB98/GEN NMR

erre ene a

0 1
  C      332.353     119.040     164.274
  O      332.543     117.869     165.043
  H      331.862     119.791     164.898
  H      331.710     118.828     163.415
  H      333.312     119.439     163.933
  P      333.336     116.635     164.392
  C      332.177     114.648     165.538
  O      333.339     115.461     165.487
  C      331.981     114.078     166.943
  O      333.255     113.580     167.426
  C      331.462     115.103     167.957
  O      330.547     114.449     168.836
  C      332.707     115.504     168.721
  O      332.411     115.960     170.040
  C      333.523     114.213     168.692
  N      337.411     113.964     171.908
  C      336.106     113.536     172.052
  N      335.776     112.980     173.238
  N      335.201     113.645     171.116
  C      335.672     114.209     169.977
  C      336.938     114.674     169.712
  C      337.928     114.560     170.762
  O      339.093     114.933     170.698
  N      337.018     115.202     168.446
  C      335.803     115.060     167.951
  N      334.948     114.471     168.844
  O      334.683     116.963     163.834
  O      332.342     116.085     163.267
  H      333.269     116.095     170.497
  H      332.609     116.405     162.385
  H      338.065     113.866     172.665
  H      335.491     115.368     166.962
  H      333.239     113.520     169.494
  H      333.227     116.310     168.187
  H      336.425     112.846     173.996
  H      330.975     115.962     167.483
  H      334.831     112.638     173.358
  H      331.307     113.215     166.876
  H      332.300     113.828     164.822
  H      331.303     115.243     165.249
  P      329.627     113.270     168.257
  C      327.342     114.017     169.177
  O      328.392     113.060     169.257
  O      330.349     112.023     167.865
  O      328.931     113.958     166.985
  H      328.749     113.269     166.316
  H      326.581     113.772     169.888
  H      326.926     114.008     168.191
  H      327.730     114.991     169.391

 6  7  8  9  10  11  12  13  14  15  26  29  33  34 0
 6-311+G(2d,p)
 ****
 36  38  39  40  41 0
 6-311+G(2d,p)
 ****
 1  2  3  4  5  16  17  18  19  20  21  22  23  24  25 0
 3-21G
 ****
 27  28  30  31  32  35  37  42  43  44  45  46  47 0
 3-21G
 ****
 48  49 0
 3-21G
 ****


