%nproc=1
%NoSave
%Mem=1900MB
#P OB98/GEN NMR

erre ene a

0 1
  C      323.372     100.625     267.157
  O      322.989      99.642     266.221
  P      322.312     100.082     264.840
  C      320.844     102.007     263.977
  O      321.452     101.407     265.110
  C      319.563     102.739     264.380
  O      319.827     103.631     265.490
  C      318.988     103.626     263.278
  O      318.316     102.854     262.301
  C      318.086     104.548     264.082
  O      316.827     103.909     264.374
  C      318.895     104.728     265.390
  N      318.844     109.510     267.183
  C      317.900     108.529     267.188
  N      317.985     107.300     266.648
  C      319.169     107.116     266.043
  C      320.212     108.034     265.941
  C      320.025     109.272     266.565
  N      320.992     110.248     266.636
  N      321.263     107.484     265.218
  C      320.850     106.265     264.888
  N      319.622     105.989     265.431
  O      321.590      98.997     264.102
  O      323.548     100.630     263.972
  H      317.032     103.099     264.891
  H      323.635     100.095     263.151
  H      316.966     108.774     267.681
  H      321.413     105.563     264.293
  H      318.254     104.681     266.277
  H      317.862     105.486     263.572
  H      319.786     104.220     262.815
  H      318.827     101.993     264.699
  H      320.603     101.221     263.250
  H      320.800     111.038     267.234
  H      321.964     109.985     266.452
  H      321.562     102.707     263.511
  P      318.280     103.340     260.775
  C      316.944     105.035     259.397
  O      317.112     104.430     260.664
  O      318.261     102.256     259.748
  O      319.612     104.233     260.639
  H      319.964     104.156     259.735
  H      317.715     105.798     259.255
  H      315.954     105.508     259.349
  H      317.009     104.297     258.590
  H      323.804     100.152     268.014
  H      322.512     101.188     267.455
  H      324.090     101.281     266.712

 3  4  5  6  7  8  9  10  11  12  22  25  29  30  31  32 0
 6-311+G(2d,p)
 ****
 33  36  37 0
 6-311+G(2d,p)
 ****
 1  2  13  14  15  16  17  18  19  20  21  23  24  26 0
 3-21G
 ****
 27  28  34  35  38  39  40  41  42  43  44  45  46  47  48 0
 3-21G
 ****


