%nproc=1
%NoSave
%Mem=1900MB
#P OB98/GEN NMR

erre ene a

0 1
  C      173.060     318.224     146.419
  O      173.752     319.481     146.497
  P      172.956     320.782     147.003
  C      174.696     321.438     148.844
  O      174.005     321.804     147.658
  C      176.174     321.828     148.734
  O      176.866     320.931     147.832
  C      176.416     323.220     148.173
  O      176.169     324.230     149.138
  C      177.878     323.127     147.756
  O      178.749     323.349     148.878
  C      177.976     321.667     147.271
  N      178.008     321.558     145.815
  C      179.145     322.044     145.183
  O      180.066     322.599     145.781
  N      179.174     321.906     143.820
  C      178.171     321.402     143.041
  O      178.250     321.321     141.823
  C      176.962     320.979     143.762
  C      176.933     321.080     145.092
  O      172.190     320.222     148.295
  O      171.988     321.371     146.028
  H      178.555     324.250     149.209
  H      171.370     320.732     148.435
  H      180.003     322.228     143.343
  H      176.134     320.593     143.181
  H      176.047     320.770     145.638
  H      178.883     321.196     147.675
  H      178.143     323.865     146.993
  H      175.798     323.378     147.281
  H      176.627     321.726     149.728
  H      174.621     320.357     148.986
  H      174.229     321.938     149.697
  P      175.148     325.398     148.714
  C      173.235     324.506     150.255
  O      174.142     325.544     149.951
  O      174.303     324.663     147.570
  O      175.839     326.644     148.273
  H      174.196     323.713     147.749
  H      173.656     323.523     150.026
  H      172.314     324.650     149.685
  H      173.000     324.548     151.322
  H      173.731     317.469     146.067
  H      172.235     318.312     145.743
  H      172.698     317.955     147.389

 3  4  5  6  7  8  9  10  11  12  13  23  28  29  30  31  32 0
 6-311+G(2d,p)
 ****
 33  34 0
 6-311+G(2d,p)
 ****
 1  2  14  15  16  17  18  19  20  21  22  24  25  26 0
 3-21G
 ****
 27  35  36  37  38  39  40  41  42  43  44  45 0
 3-21G
 ****


