%nproc=1
%NoSave
%Mem=1900MB
#P OB98/GEN NMR

erre ene a

0 1
  C      581.382    -469.835     514.523
  O      581.865    -469.256     513.313
  P      581.007    -469.541     511.985
  C      581.839    -471.807     511.019
  O      580.872    -471.136     511.805
  C      581.221    -472.932     510.183
  O      580.284    -472.380     509.198
  C      582.255    -473.757     509.395
  O      581.765    -475.094     509.326
  C      582.211    -473.143     508.012
  O      582.730    -474.054     507.025
  C      580.710    -472.829     507.894
  N      580.413    -471.815     506.852
  C      579.321    -472.078     506.019
  O      578.690    -473.144     506.119
  N      578.987    -471.148     505.069
  C      579.714    -470.080     504.927
  N      579.338    -469.202     503.963
  C      580.910    -469.806     505.747
  C      581.195    -470.706     506.687
  O      582.009    -469.111     510.802
  O      579.729    -468.782     511.916
  H      582.107    -474.817     506.950
  H      581.543    -468.528     510.176
  H      581.500    -468.908     505.577
  H      582.057    -470.595     507.341
  H      580.138    -473.734     507.645
  H      582.813    -472.226     507.991
  H      583.237    -473.757     509.856
  H      580.645    -473.579     510.844
  H      578.505    -469.431     503.421
  H      582.604    -472.249     511.674
  H      579.820    -468.355     503.763
  H      582.362    -471.082     510.395
  P      582.268    -476.159     510.422
  C      584.253    -477.041     509.039
  O      583.848    -476.280     510.173
  O      581.734    -477.543     509.800
  O      581.820    -475.996     511.833
  H      581.923    -478.271     510.411
  H      585.335    -476.942     508.922
  H      583.761    -476.697     508.144
  H      584.023    -478.114     509.210
  H      582.036    -469.574     515.329
  H      581.349    -470.900     514.421
  H      580.399    -469.466     514.727

 3  4  5  6  7  8  9  10  11  12  13  21  23  27  28  29  30  32 0
 6-311+G(2d,p)
 ****
 34  35 0
 6-311+G(2d,p)
 ****
 1  2  14  15  16  17  18  19  20  22  24  25  26 0
 3-21G
 ****
 31  33  36  37  38  39  40  41  42  43  44  45  46 0
 3-21G
 ****


