%nproc=1
%NoSave
%Mem=1900MB
#P OB98/GEN NMR

erre ene a

0 1
  C      127.446     258.081     -47.902
  O      127.747     256.760     -47.486
  P      128.058     255.670     -48.624
  C      126.152     254.100     -47.804
  O      126.690     254.871     -48.873
  C      125.259     252.991     -48.354
  O      124.039     253.536     -48.894
  C      125.882     252.197     -49.494
  O      126.779     251.198     -49.034
  C      124.650     251.557     -50.112
  O      124.256     250.406     -49.344
  C      123.605     252.673     -49.974
  N      121.218     252.971     -54.424
  C      120.978     252.140     -53.349
  N      120.006     251.219     -53.505
  N      121.634     252.207     -52.218
  C      122.586     253.171     -52.208
  C      122.913     254.057     -53.210
  C      122.186     253.964     -54.459
  O      122.388     254.634     -55.464
  N      123.926     254.895     -52.827
  C      124.214     254.522     -51.597
  N      123.459     253.452     -51.192
  O      128.977     254.599     -47.869
  O      128.717     256.218     -49.844
  H      125.034     249.810     -49.316
  H      129.446     254.045     -48.520
  H      120.689     252.876     -55.277
  H      124.967     254.981     -50.970
  H      122.620     252.283     -49.703
  H      124.815     251.213     -51.137
  H      119.509     251.072     -54.372
  H      126.355     252.858     -50.231
  H      119.854     250.552     -52.755
  H      124.996     252.326     -47.521
  H      125.569     254.750     -47.150
  H      126.976     253.670     -47.223
  P      127.870     250.666     -50.084
  C      126.820     248.291     -49.963
  O      127.204     249.384     -50.775
  O      129.005     250.046     -49.140
  O      128.404     251.711     -51.004
  H      129.870     250.068     -49.590
  H      126.159     247.641     -50.540
  H      126.287     248.631     -49.074
  H      127.705     247.720     -49.668
  H      127.262     258.692     -47.043
  H      126.576     258.069     -48.524
  H      128.273     258.479     -48.453

 3  4  5  6  7  8  9  10  11  12  23  26  30  31 0
 6-311+G(2d,p)
 ****
 33  35  36  37  38 0
 6-311+G(2d,p)
 ****
 1  2  13  14  15  16  17  18  19  20  21  22  24  25 0
 3-21G
 ****
 27  28  29  32  34  39  40  41  42  43  44  45  46  47  48  49 0
 3-21G
 ****


