%nproc=1
%NoSave
%Mem=1900MB
#P OB98/GEN NMR

erre ene a

0 1
  C        9.049    -166.024     161.407
  O        9.121    -166.850     160.267
  H        8.004    -165.748     161.573
  H        9.629    -165.113     161.237
  H        9.422    -166.536     162.298
  P       10.420    -167.758     160.055
  C       11.079    -166.576     157.857
  O       11.476    -166.924     159.177
  C       12.277    -166.194     156.988
  O       12.800    -164.918     157.416
  C       13.426    -167.201     157.097
  O       13.333    -168.298     156.204
  C       14.638    -166.331     156.772
  O       14.889    -166.293     155.358
  C       14.228    -164.946     157.283
  N       18.284    -162.960     159.679
  C       18.142    -163.288     158.344
  N       19.229    -163.093     157.567
  N       17.039    -163.773     157.837
  C       16.073    -164.006     158.755
  C       16.107    -163.742     160.106
  C       17.305    -163.135     160.646
  O       17.475    -162.812     161.817
  N       14.952    -164.150     160.729
  C       14.264    -164.736     159.771
  N       14.865    -164.603     158.542
  O        9.926    -168.881     159.022
  O       10.975    -168.390     161.296
  H       15.704    -165.775     155.210
  H       10.405    -169.712     159.190
  H       19.147    -162.563     160.007
  H       13.307    -165.229     159.902
  H       14.497    -164.160     156.566
  H       15.541    -166.732     157.241
  H       20.125    -162.805     157.921
  H       13.529    -167.560     158.125
  H       19.227    -163.496     156.628
  H       11.947    -166.073     155.949
  H       10.399    -165.728     157.950
  H       10.520    -167.397     157.399
  P       14.282    -169.573     156.368
  C       15.522    -169.088     154.105
  O       15.594    -169.341     155.491
  O       13.498    -170.713     155.567
  O       14.575    -169.978     157.776
  H       12.993    -171.280     156.180
  H       16.510    -168.963     153.713
  H       14.955    -168.197     153.934
  H       15.046    -169.912     153.616

 6  7  8  9  10  11  12  13  14  15  26  29  33  34 0
 6-311+G(2d,p)
 ****
 36  38  39  40  41 0
 6-311+G(2d,p)
 ****
 1  2  3  4  5  16  17  18  19  20  21  22  23  24  25 0
 3-21G
 ****
 27  28  30  31  32  35  37  42  43  44  45  46  47 0
 3-21G
 ****
 48  49 0
 3-21G
 ****


