%nproc=1
%NoSave
%Mem=1900MB
#P OB98/GEN NMR

erre ene a

0 1
  C     -442.203    -130.502     294.490
  O     -440.922    -130.628     295.070
  H     -442.871    -130.037     295.218
  H     -442.592    -131.493     294.240
  H     -442.177    -129.880     293.591
  P     -439.663    -130.859     294.110
  C     -438.883    -133.181     294.920
  O     -438.613    -131.785     294.894
  C     -437.849    -133.978     294.121
  O     -438.122    -133.874     292.707
  C     -436.428    -133.446     294.317
  O     -435.753    -133.928     295.466
  C     -435.740    -133.919     293.038
  O     -435.262    -135.267     293.184
  C     -436.867    -133.857     292.005
  N     -435.618    -131.925     287.441
  C     -435.456    -133.213     287.914
  N     -434.833    -134.079     287.086
  N     -435.858    -133.604     289.096
  C     -436.378    -132.604     289.849
  C     -436.574    -131.289     289.496
  C     -436.177    -130.877     288.164
  O     -436.291    -129.748     287.699
  N     -437.135    -130.570     290.526
  C     -437.205    -131.430     291.520
  N     -436.783    -132.686     291.152
  O     -438.929    -129.431     294.103
  O     -439.991    -131.300     292.715
  H     -434.941    -135.574     292.315
  H     -438.425    -129.320     293.277
  H     -435.315    -131.687     286.514
  H     -437.576    -131.203     292.514
  H     -436.858    -134.735     291.349
  H     -434.874    -133.300     292.795
  H     -434.404    -133.796     286.218
  H     -436.428    -132.351     294.321
  H     -434.463    -134.943     287.490
  H     -437.923    -135.038     294.389
  H     -439.874    -133.317     294.486
  H     -438.928    -133.539     295.952
  P     -434.888    -132.924     296.366
  C     -432.580    -133.545     295.334
  O     -433.414    -133.545     296.471
  O     -435.501    -133.143     297.826
  O     -434.944    -131.496     295.947
  H     -436.167    -132.457     298.021
  H     -431.640    -133.994     295.581
  H     -432.420    -132.538     295.009
  H     -433.047    -134.103     294.549

 6  7  8  9  10  11  12  13  14  15  26  29  33  34 0
 6-311+G(2d,p)
 ****
 36  38  39  40  41 0
 6-311+G(2d,p)
 ****
 1  2  3  4  5  16  17  18  19  20  21  22  23  24  25 0
 3-21G
 ****
 27  28  30  31  32  35  37  42  43  44  45  46  47 0
 3-21G
 ****
 48  49 0
 3-21G
 ****


