%nproc=1
%NoSave
%Mem=1900MB
#P OB98/GEN NMR

erre ene a

0 1
  C      271.700     509.550     333.544
  O      272.378     508.321     333.798
  P      271.617     506.943     333.503
  C      270.069     505.311     334.764
  O      270.981     506.399     334.875
  C      269.517     504.908     336.150
  O      270.619     504.447     337.004
  C      268.807     506.061     336.881
  O      267.513     505.712     337.356
  C      269.819     506.498     337.937
  O      269.204     507.148     339.038
  C      270.560     505.176     338.238
  N      271.892     505.438     338.791
  C      272.322     504.598     339.805
  O      271.617     503.719     340.300
  N      273.587     504.831     340.298
  C      274.414     505.842     339.923
  O      275.522     506.047     340.412
  C      273.895     506.757     338.876
  C      272.669     506.515     338.379
  O      272.398     505.922     332.721
  O      270.319     507.403     332.677
  H      269.892     507.363     339.699
  H      270.152     506.737     331.977
  H      273.903     504.201     341.025
  H      274.493     507.585     338.580
  H      272.242     507.161     337.621
  H      270.005     504.582     338.970
  H      270.519     507.195     337.479
  H      268.626     506.903     336.193
  H      268.828     504.060     336.006
  H      270.576     504.443     334.333
  H      269.263     505.562     334.064
  P      266.177     506.570     337.100
  C      265.229     508.853     337.884
  O      266.259     507.895     337.997
  O      264.893     505.815     337.194
  O      266.391     507.113     335.596
  H      265.543     507.075     335.128
  H      265.596     509.812     338.240
  H      264.374     508.532     338.497
  H      264.889     508.968     336.836
  H      272.342     510.369     333.792
  H      270.814     509.598     334.141
  H      271.436     509.604     332.509

 3  4  5  6  7  8  9  10  11  12  13  23  28  29  30  31  32 0
 6-311+G(2d,p)
 ****
 33  34 0
 6-311+G(2d,p)
 ****
 1  2  14  15  16  17  18  19  20  21  22  24  25  26  27 0
 3-21G
 ****
 35  36  37  38  39  40  41  42  43  44  45 0
 3-21G
 ****


