%nproc=1
%NoSave
%Mem=1900MB
#P OB98/GEN NMR

erre ene a

0 1
  C       24.217    -163.284    -215.534
  O       23.529    -163.894    -214.434
  P       24.310    -164.551    -213.196
  C       23.071    -166.759    -212.720
  O       23.270    -165.404    -212.322
  C       21.684    -167.269    -212.320
  O       20.669    -166.722    -213.185
  C       21.523    -168.785    -212.387
  O       22.108    -169.400    -211.255
  C       20.005    -168.918    -212.482
  O       19.407    -168.804    -211.178
  C       19.634    -167.709    -213.349
  N       16.411    -169.596    -216.844
  C       16.267    -169.350    -215.523
  N       17.177    -168.852    -214.657
  C       18.329    -168.572    -215.290
  C       18.622    -168.771    -216.631
  C       17.598    -169.313    -217.427
  N       17.752    -169.576    -218.769
  N       19.918    -168.391    -216.909
  C       20.392    -167.950    -215.759
  N       19.472    -168.041    -214.753
  O       25.125    -163.581    -212.402
  O       25.248    -165.669    -213.855
  H       19.802    -169.494    -210.616
  H       26.039    -165.804    -213.300
  H       15.294    -169.591    -215.103
  H       21.390    -167.557    -215.609
  H       18.700    -167.242    -213.013
  H       19.691    -169.878    -212.902
  H       21.979    -169.170    -213.306
  H       21.474    -166.908    -211.305
  H       23.840    -167.376    -212.239
  H       16.979    -169.995    -219.264
  H       18.648    -169.412    -219.203
  H       23.194    -166.824    -213.807
  P       23.436    -170.277    -211.415
  C       22.910    -172.498    -210.240
  O       23.531    -171.231    -210.129
  O       24.680    -169.516    -211.736
  O       23.069    -171.309    -212.587
  H       23.883    -171.550    -213.070
  H       21.832    -172.389    -210.081
  H       23.317    -173.158    -209.471
  H       23.093    -172.940    -211.223
  H       23.503    -162.914    -216.240
  H       24.845    -164.009    -216.008
  H       24.816    -162.473    -215.175

 3  4  5  6  7  8  9  10  11  12  22  25  29  30  31  32 0
 6-311+G(2d,p)
 ****
 33  36  37 0
 6-311+G(2d,p)
 ****
 1  2  13  14  15  16  17  18  19  20  21  23  24  26 0
 3-21G
 ****
 27  28  34  35  38  39  40  41  42  43  44  45  46  47  48 0
 3-21G
 ****


