%nproc=1
%NoSave
%Mem=1900MB
#P OB98/GEN NMR

erre ene a

0 1
  C       33.863    -115.280     -46.664
  O       34.921    -115.769     -47.465
  H       32.916    -115.494     -47.169
  H       33.952    -114.198     -46.538
  H       33.856    -115.772     -45.687
  P       36.422    -115.673     -46.907
  C       38.110    -113.773     -46.513
  O       36.919    -114.170     -47.179
  C       38.373    -112.283     -46.725
  O       38.561    -112.037     -48.144
  C       37.231    -111.380     -46.237
  O       37.798    -110.200     -45.669
  C       36.493    -111.026     -47.515
  O       35.803    -109.782     -47.415
  C       37.627    -111.013     -48.541
  N       37.615    -109.263     -53.283
  C       38.292    -108.811     -52.167
  N       39.064    -107.712     -52.327
  N       38.218    -109.384     -50.993
  C       37.420    -110.480     -50.981
  C       36.699    -111.026     -52.015
  C       36.777    -110.375     -53.307
  O       36.193    -110.722     -54.326
  N       35.990    -112.128     -51.599
  C       36.281    -112.243     -50.315
  N       37.137    -111.259     -49.889
  O       37.358    -116.732     -47.397
  O       36.249    -115.721     -45.317
  H       36.461    -109.109     -47.133
  H       36.440    -116.614     -44.976
  H       37.702    -108.778     -54.161
  H       35.898    -113.008     -49.651
  H       38.155    -110.051     -48.567
  H       35.761    -111.809     -47.749
  H       39.181    -107.229     -53.203
  H       36.580    -111.872     -45.507
  H       39.589    -107.375     -51.526
  H       39.317    -112.022     -46.231
  H       38.944    -114.357     -46.923
  H       38.018    -113.991     -45.443
  P       38.244    -110.222     -44.128
  C       37.051    -110.155     -41.844
  O       36.935    -110.459     -43.230
  O       39.121    -109.095     -43.693
  O       39.007    -111.629     -44.001
  H       39.697    -111.554     -43.312
  H       36.119    -110.353     -41.356
  H       37.303    -109.122     -41.725
  H       37.817    -110.762     -41.409

 6  7  8  9  10  11  12  13  14  15  26  29  33  34 0
 6-311+G(2d,p)
 ****
 36  38  39  40  41 0
 6-311+G(2d,p)
 ****
 1  2  3  4  5  16  17  18  19  20  21  22  23  24  25 0
 3-21G
 ****
 27  28  30  31  32  35  37  42  43  44  45  46  47 0
 3-21G
 ****
 48  49 0
 3-21G
 ****


