%nproc=1
%NoSave
%Mem=1900MB
#P OB98/GEN NMR

erre ene a

0 1
  C       58.184      57.862    -180.382
  O       58.202      58.567    -181.604
  P       58.737      57.887    -182.951
  C       60.762      56.391    -183.507
  O       60.250      57.419    -182.665
  C       61.702      55.473    -182.717
  O       60.919      54.764    -181.706
  C       62.394      54.418    -183.604
  O       63.817      54.379    -183.475
  C       61.669      53.134    -183.230
  O       62.391      51.958    -183.531
  C       61.337      53.385    -181.753
  N       60.315      52.474    -181.246
  C       60.685      51.144    -181.058
  O       61.810      50.698    -181.279
  N       59.692      50.295    -180.655
  C       58.370      50.608    -180.536
  O       57.516      49.774    -180.268
  C       58.030      52.020    -180.788
  C       59.001      52.880    -181.102
  O       58.570      58.702    -184.188
  O       57.957      56.487    -182.983
  H       61.792      51.196    -183.403
  H       58.123      55.908    -182.217
  H       59.947      49.330    -180.514
  H       56.988      52.294    -180.711
  H       58.782      53.925    -181.293
  H       62.225      53.294    -181.124
  H       60.737      53.095    -183.810
  H       62.231      54.630    -184.668
  H       62.434      56.106    -182.208
  H       61.318      56.853    -184.328
  H       59.932      55.826    -183.950
  P       64.794      53.446    -184.334
  C       65.001      50.875    -184.669
  O       64.628      51.941    -183.819
  O       66.203      53.927    -184.438
  O       64.102      53.414    -185.779
  H       64.784      53.287    -186.464
  H       64.393      50.000    -184.421
  H       66.053      50.628    -184.496
  H       64.851      51.128    -185.722
  H       57.792      58.493    -179.612
  H       59.180      57.564    -180.127
  H       57.566      56.994    -180.480

 3  4  5  6  7  8  9  10  11  12  13  23  28  29  30  31  32 0
 6-311+G(2d,p)
 ****
 33  34 0
 6-311+G(2d,p)
 ****
 1  2  14  15  16  17  18  19  20  21  22  24  25  26  27 0
 3-21G
 ****
 35  36  37  38  39  40  41  42  43  44  45 0
 3-21G
 ****


