%nproc=1
%NoSave
%Mem=1900MB
#P OB98/GEN NMR

erre ene a

0 1
  C      -87.273     -12.003      21.072
  O      -88.164     -11.729      19.983
  P      -88.057     -10.387      19.110
  C      -85.999     -10.798      17.616
  O      -87.422     -10.751      17.682
  C      -85.486     -10.468      16.211
  O      -84.102     -10.069      16.252
  C      -85.562     -11.626      15.221
  O      -86.882     -11.783      14.735
  C      -84.539     -11.191      14.176
  O      -85.118     -10.237      13.271
  C      -83.464     -10.522      15.043
  N      -78.375     -11.008      14.970
  C      -79.189      -9.989      14.623
  N      -80.538      -9.937      14.666
  C      -81.039     -11.086      15.152
  C      -80.333     -12.212      15.544
  C      -78.934     -12.149      15.438
  N      -78.107     -13.194      15.779
  N      -81.192     -13.205      15.964
  C      -82.395     -12.680      15.846
  N      -82.355     -11.403      15.359
  O      -87.381      -9.253      19.809
  O      -89.573     -10.010      18.756
  H      -85.313      -9.431      13.783
  H      -89.651      -9.046      18.633
  H      -78.691      -9.094      14.258
  H      -83.320     -13.182      16.101
  H      -83.048      -9.633      14.556
  H      -84.166     -12.027      13.576
  H      -85.222     -12.551      15.699
  H      -86.061      -9.610      15.839
  H      -85.674     -11.807      17.896
  H      -77.115     -13.082      15.642
  H      -78.518     -14.064      16.084
  H      -85.593     -10.083      18.339
  P      -87.800     -12.979      15.275
  C      -89.526     -11.326      16.207
  O      -89.303     -12.426      15.344
  O      -87.314     -13.657      16.512
  O      -87.858     -13.997      14.039
  H      -87.968     -14.906      14.376
  H      -89.610     -11.682      17.237
  H      -90.464     -10.842      15.920
  H      -88.714     -10.599      16.133
  H      -87.524     -12.946      21.510
  H      -87.363     -11.232      21.809
  H      -86.267     -12.035      20.710

 3  4  5  6  7  8  9  10  11  12  22  25  29  30  31  32 0
 6-311+G(2d,p)
 ****
 33  36  37 0
 6-311+G(2d,p)
 ****
 1  2  13  14  15  16  17  18  19  20  21  23  24  26 0
 3-21G
 ****
 27  28  34  35  38  39  40  41  42  43  44  45  46  47  48 0
 3-21G
 ****


