%nproc=1
%NoSave
%Mem=1900MB
#P OB98/GEN NMR

erre ene a

0 1
  C     -851.971    -896.300    1378.581
  O     -852.940    -896.270    1379.626
  P     -853.145    -895.000    1380.595
  C     -855.496    -894.330    1379.684
  O     -854.718    -894.750    1380.829
  C     -856.979    -894.230    1380.028
  O     -857.592    -895.510    1380.034
  C     -857.281    -893.630    1381.410
  O     -857.091    -892.210    1381.374
  C     -858.734    -894.050    1381.605
  O     -859.633    -893.200    1380.921
  C     -858.722    -895.480    1380.945
  N     -858.650    -896.560    1381.937
  C     -859.867    -897.100    1382.357
  O     -860.927    -896.640    1381.917
  N     -859.829    -898.150    1383.242
  C     -858.709    -898.570    1383.765
  N     -858.758    -899.590    1384.623
  C     -857.401    -897.920    1383.423
  C     -857.459    -896.950    1382.520
  O     -852.394    -893.760    1380.166
  O     -852.643    -895.490    1382.049
  H     -859.601    -892.320    1381.352
  H     -852.257    -894.750    1382.531
  H     -856.481    -898.290    1383.895
  H     -856.537    -896.460    1382.193
  H     -859.624    -895.650    1380.324
  H     -859.027    -894.080    1382.655
  H     -856.622    -894.080    1382.153
  H     -857.455    -893.630    1379.219
  H     -859.637    -900.000    1384.843
  H     -855.340    -895.100    1378.878
  H     -857.933    -899.990    1385.082
  H     -855.084    -893.380    1379.329
  P     -857.006    -891.393    1382.744
  C     -854.589    -890.481    1382.580
  O     -856.005    -890.168    1382.515
  O     -856.757    -892.200    1383.963
  O     -858.435    -890.647    1382.841
  H     -858.671    -890.550    1383.773
  H     -854.040    -889.706    1382.061
  H     -854.385    -891.433    1382.162
  H     -854.308    -890.455    1383.649
  H     -852.020    -897.242    1378.076
  H     -850.994    -896.169    1378.997
  H     -852.171    -895.512    1377.886

 3  4  5  6  7  8  9  10  11  12  13  23  27  28  29  30  32 0
 6-311+G(2d,p)
 ****
 34  35 0
 6-311+G(2d,p)
 ****
 1  2  14  15  16  17  18  19  20  21  22  24  25  26 0
 3-21G
 ****
 31  33  36  37  38  39  40  41  42  43  44  45  46 0
 3-21G
 ****


