%nproc=1
%NoSave
%Mem=1900MB
#P OB98/GEN NMR

erre ene a

0 1
  C      108.644     301.344    -126.056
  O      109.919     300.734    -125.982
  H      107.905     300.618    -126.403
  H      108.363     301.687    -125.055
  H      108.669     302.206    -126.729
  P      110.600     300.316    -127.373
  C      110.671     297.748    -126.955
  O      111.408     298.959    -127.071
  C      111.580     296.543    -127.199
  O      111.985     296.537    -128.595
  C      112.853     296.554    -126.347
  O      113.144     295.217    -125.935
  C      113.921     297.045    -127.307
  O      115.224     296.615    -126.936
  C      113.424     296.464    -128.629
  N      117.500     297.157    -131.627
  C      117.251     296.278    -130.637
  N      116.131     296.157    -129.891
  C      115.194     297.040    -130.291
  C      115.306     297.995    -131.285
  C      116.532     298.048    -131.970
  N      116.812     298.964    -132.955
  N      114.142     298.735    -131.374
  C      113.346     298.233    -130.450
  N      113.939     297.205    -129.769
  O      111.756     301.415    -127.530
  O      109.693     300.280    -128.555
  H      115.844     296.841    -127.662
  H      111.371     302.247    -127.868
  H      118.056     295.583    -130.407
  H      112.343     298.576    -130.235
  H      113.717     295.418    -128.766
  H      113.917     298.141    -127.336
  H      112.768     297.196    -125.467
  H      110.998     295.628    -127.035
  H      109.863     297.753    -127.693
  H      117.738     298.971    -133.352
  H      116.129     299.669    -133.177
  H      110.237     297.686    -125.950
  P      113.009     294.897    -124.365
  C      115.570     294.942    -123.960
  O      114.364     294.193    -123.866
  O      111.927     293.717    -124.321
  O      112.565     296.071    -123.555
  H      111.232     293.922    -123.669
  H      116.385     294.353    -123.595
  H      115.483     295.833    -123.374
  H      115.749     295.204    -124.982

 6  7  8  9  10  11  12  13  14  15  25  28  32  33  34  35 0
 6-311+G(2d,p)
 ****
 36  39  40 0
 6-311+G(2d,p)
 ****
 1  2  3  4  5  16  17  18  19  20  21  22  23  24 0
 3-21G
 ****
 26  27  29  30  31  37  38  41  42  43  44  45  46  47 0
 3-21G
 ****
 48 0
 3-21G
 ****


