%nproc=1
%NoSave
%Mem=1900MB
#P OB98/GEN NMR

erre ene a

0 1
  C     -205.651     337.313     358.306
  O     -206.916     337.213     357.652
  P     -206.949     337.250     356.052
  C     -208.911     338.956     355.517
  O     -208.422     337.627     355.548
  C     -210.368     338.967     356.022
  O     -210.400     338.998     357.467
  C     -211.167     340.167     355.516
  O     -211.740     339.932     354.248
  C     -212.192     340.352     356.625
  O     -213.241     339.381     356.494
  C     -211.328     340.044     357.879
  N     -210.553     341.154     358.477
  C     -211.176     342.028     359.371
  O     -212.348     341.956     359.708
  N     -210.378     343.025     359.888
  C     -209.033     343.122     359.742
  O     -208.360     344.008     360.286
  C     -208.394     342.094     358.919
  C     -209.181     341.179     358.323
  O     -206.787     335.718     355.631
  O     -205.899     338.115     355.426
  H     -213.544     339.408     355.563
  H     -205.948     335.588     355.146
  H     -210.830     343.709     360.475
  H     -207.318     342.108     358.818
  H     -208.723     340.415     357.705
  H     -211.955     339.632     358.679
  H     -212.668     341.323     356.568
  H     -210.529     341.062     355.502
  H     -210.854     338.034     355.692
  H     -208.853     339.369     354.508
  H     -208.284     339.589     356.162
  P     -210.948     340.358     352.927
  C     -212.744     342.080     352.276
  O     -212.071     340.892     351.898
  O     -209.996     339.348     352.366
  O     -210.199     341.717     353.346
  H     -209.274     341.536     353.628
  H     -213.357     342.409     351.430
  H     -212.025     342.869     352.518
  H     -213.393     341.882     353.130
  H     -205.793     337.273     359.366
  H     -205.186     338.240     358.043
  H     -205.026     336.501     357.999

 3  4  5  6  7  8  9  10  11  12  13  23  28  29  30  31  32 0
 6-311+G(2d,p)
 ****
 33  34 0
 6-311+G(2d,p)
 ****
 1  2  14  15  16  17  18  19  20  21  22  24  25  26  27 0
 3-21G
 ****
 35  36  37  38  39  40  41  42  43  44  45 0
 3-21G
 ****


