%nproc=1
%NoSave
%Mem=1900MB
#P OB98/GEN NMR

erre ene a

0 1
  C       44.142      50.833     -72.456
  O       44.108      51.252     -71.103
  P       42.886      52.120     -70.523
  C       40.380      51.597     -70.149
  O       41.568      51.265     -70.846
  C       39.165      50.975     -70.840
  O       38.883      51.730     -72.047
  C       39.350      49.507     -71.243
  O       38.080      48.862     -71.093
  C       39.731      49.604     -72.708
  O       39.479      48.401     -73.420
  C       38.878      50.799     -73.149
  N       39.379      51.425     -74.367
  C       39.245      50.717     -75.563
  O       38.745      49.594     -75.580
  N       39.686      51.302     -76.725
  C       40.286      52.451     -76.684
  N       40.650      53.015     -77.868
  C       40.543      53.182     -75.429
  C       40.048      52.627     -74.327
  O       42.843      53.532     -70.994
  O       43.005      51.961     -68.939
  H       39.822      48.505     -74.328
  H       43.631      52.611     -68.532
  H       41.073      54.125     -75.444
  H       40.169      53.104     -73.364
  H       37.837      50.488     -73.294
  H       40.799      49.829     -72.793
  H       40.093      48.990     -70.629
  H       38.298      51.083     -70.177
  H       40.303      52.568     -78.711
  H       40.270      52.685     -70.153
  H       40.813      54.013     -77.943
  H       40.456      51.262     -69.109
  P       38.060      47.287     -70.779
  C       38.904      45.868     -68.778
  O       39.097      47.004     -69.592
  O       38.840      46.693     -72.052
  O       36.713      46.649     -70.667
  H       38.556      45.770     -72.195
  H       39.703      45.831     -68.033
  H       38.947      44.954     -69.378
  H       37.944      45.925     -68.259
  H       45.035      50.271     -72.633
  H       44.127      51.691     -73.095
  H       43.289      50.220     -72.661

 3  4  5  6  7  8  9  10  11  12  13  23  27  28  29  30  32 0
 6-311+G(2d,p)
 ****
 34  35 0
 6-311+G(2d,p)
 ****
 1  2  14  15  16  17  18  19  20  21  22  24  25  26 0
 3-21G
 ****
 31  33  36  37  38  39  40  41  42  43  44  45  46 0
 3-21G
 ****


