%nproc=1
%NoSave
%Mem=1900MB
#P OB98/GEN NMR

erre ene a

0 1
  C      829.928    1277.146     372.564
  O      830.320    1277.045     371.216
  H      829.321    1278.046     372.684
  H      830.803    1277.220     373.213
  H      829.319    1276.287     372.866
  P      831.042    1275.673     370.787
  C      829.012    1274.362     369.822
  O      830.199    1275.083     369.547
  C      828.500    1273.666     368.544
  O      828.065    1274.674     367.587
  C      829.550    1272.814     367.842
  O      829.649    1271.539     368.413
  C      828.939    1272.750     366.445
  O      827.850    1271.780     366.445
  C      828.403    1274.166     366.266
  N      829.966    1276.193     361.876
  C      828.951    1275.267     362.118
  N      828.298    1274.792     361.048
  N      828.658    1274.823     363.332
  C      829.404    1275.375     364.301
  C      830.430    1276.306     364.180
  C      830.756    1276.782     362.860
  O      831.602    1277.610     362.587
  N      830.960    1276.618     365.402
  C      830.277    1275.869     366.271
  N      829.341    1275.087     365.634
  O      830.686    1274.666     371.988
  O      832.521    1275.758     370.582
  H      828.216    1270.948     366.797
  H      831.441    1274.075     372.146
  H      830.165    1276.484     360.947
  H      830.431    1275.876     367.329
  H      827.474    1274.198     365.675
  H      829.638    1272.407     365.687
  H      828.530    1275.062     360.085
  H      830.526    1273.344     367.779
  H      827.543    1274.118     361.202
  H      827.627    1273.064     368.827
  H      828.252    1275.052     370.193
  H      829.222    1273.616     370.610
  P      830.843    1270.568     367.858
  C      832.728    1271.516     369.390
  O      831.867    1270.400     369.091
  O      831.610    1271.509     366.833
  O      830.366    1269.304     367.242
  H      832.094    1270.952     366.177
  H      833.352    1271.272     370.224
  H      832.132    1272.372     369.629
  H      833.339    1271.733     368.539

 6  7  8  9  10  11  12  13  14  15  26  29  33  34 0
 6-311+G(2d,p)
 ****
 36  38  39  40  41 0
 6-311+G(2d,p)
 ****
 1  2  3  4  5  16  17  18  19  20  21  22  23  24  25 0
 3-21G
 ****
 27  28  30  31  32  35  37  42  43  44  45  46  47 0
 3-21G
 ****
 48  49 0
 3-21G
 ****


