%nproc=1
%NoSave
%Mem=1900MB
#P OB98/GEN NMR

erre ene a

0 1
  C      299.535    -536.346    -548.045
  O      299.465    -537.697    -548.465
  H      298.547    -536.034    -547.695
  H      299.830    -535.706    -548.884
  H      300.252    -536.243    -547.224
  P      300.811    -538.322    -549.078
  C      300.921    -540.371    -547.496
  O      300.725    -539.905    -548.824
  C      300.535    -541.843    -547.387
  O      299.113    -542.024    -547.593
  C      301.240    -542.757    -548.389
  O      302.523    -543.128    -547.914
  C      300.275    -543.933    -548.454
  O      300.458    -544.813    -547.326
  C      298.904    -543.234    -548.373
  N      294.750    -543.617    -551.215
  C      295.028    -544.147    -549.977
  N      294.078    -544.923    -549.414
  N      296.157    -543.953    -549.338
  C      297.044    -543.207    -550.043
  C      296.882    -542.628    -551.276
  C      295.613    -542.808    -551.941
  O      295.267    -542.296    -553.007
  N      298.003    -541.924    -551.646
  C      298.857    -542.123    -550.653
  N      298.317    -542.891    -549.651
  O      301.942    -537.844    -548.046
  O      301.139    -537.904    -550.468
  H      299.778    -545.506    -547.349
  H      302.751    -537.630    -548.550
  H      293.852    -543.778    -551.641
  H      299.853    -541.707    -550.605
  H      298.161    -543.839    -547.844
  H      300.432    -544.535    -549.350
  H      293.329    -545.342    -549.959
  H      301.299    -542.279    -549.375
  H      294.319    -545.377    -548.540
  H      300.750    -542.167    -546.358
  H      300.288    -539.777    -546.818
  H      301.973    -540.240    -547.210
  P      303.728    -543.180    -548.973
  C      305.319    -542.897    -546.939
  O      305.076    -543.549    -548.178
  O      303.941    -541.633    -549.357
  O      303.455    -544.008    -550.193
  H      303.569    -541.466    -550.254
  H      306.246    -543.241    -546.531
  H      304.525    -543.119    -546.257
  H      305.369    -541.840    -547.096

 6  7  8  9  10  11  12  13  14  15  26  29  33  34 0
 6-311+G(2d,p)
 ****
 36  38  39  40  41 0
 6-311+G(2d,p)
 ****
 1  2  3  4  5  16  17  18  19  20  21  22  23  24  25 0
 3-21G
 ****
 27  28  30  31  32  35  37  42  43  44  45  46  47 0
 3-21G
 ****
 48  49 0
 3-21G
 ****


