%nproc=1
%NoSave
%Mem=1900MB
#P OB98/GEN NMR

erre ene a

0 1
  C     -626.595    -891.720      71.363
  O     -625.864    -890.730      72.055
  H     -627.572    -891.310      71.084
  H     -626.750    -892.590      72.006
  H     -626.065    -892.020      70.447
  P     -624.329    -891.050      72.374
  C     -624.507    -890.950      74.961
  O     -624.294    -891.760      73.816
  C     -624.494    -891.810      76.227
  O     -625.519    -892.830      76.142
  C     -623.178    -892.540      76.475
  O     -622.208    -891.700      77.092
  C     -623.638    -893.650      77.397
  O     -623.824    -893.120      78.730
  C     -624.995    -894.040      76.782
  N     -624.319    -899.010      76.110
  C     -624.316    -898.270      77.279
  N     -624.084    -898.930      78.418
  N     -624.510    -896.970      77.310
  C     -624.713    -896.440      76.087
  C     -624.746    -897.070      74.861
  C     -624.545    -898.490      74.831
  O     -624.560    -899.200      73.834
  N     -624.992    -896.180      73.844
  C     -625.084    -895.000      74.452
  N     -624.912    -895.100      75.816
  O     -623.702    -889.600      72.669
  O     -623.583    -891.750      71.286
  H     -622.939    -892.960      79.089
  H     -622.788    -889.580      72.324
  H     -624.155    -900.000      76.121
  H     -625.281    -894.070      73.948
  H     -625.725    -894.350      77.551
  H     -622.919    -894.470      77.484
  H     -623.873    -899.920      78.446
  H     -622.797    -892.980      75.545
  H     -624.091    -898.420      79.281
  H     -624.733    -891.160      77.075
  H     -625.476    -890.450      74.883
  H     -623.720    -890.180      75.006
  P     -620.700    -892.230      77.167
  C     -620.863    -892.400      79.760
  O     -620.599    -893.090      78.524
  O     -619.855    -890.900      77.492
  O     -620.203    -892.920      75.929
  H     -618.943    -891.010      77.196
  H     -620.762    -893.082      80.578
  H     -621.858    -892.007      79.744
  H     -620.165    -891.598      79.877

 6  7  8  9  10  11  12  13  14  15  26  29  33  34 0
 6-311+G(2d,p)
 ****
 36  38  39  40  41 0
 6-311+G(2d,p)
 ****
 1  2  3  4  5  16  17  18  19  20  21  22  23  24  25 0
 3-21G
 ****
 27  28  30  31  32  35  37  42  43  44  45  46  47 0
 3-21G
 ****
 48  49 0
 3-21G
 ****


