%nproc=1
%NoSave
%Mem=1900MB
#P OB98/GEN NMR

erre ene a

0 1
  C      -73.157     -62.035    -184.488
  O      -72.240     -62.243    -183.422
  P      -70.914     -61.332    -183.396
  C      -68.669     -61.372    -184.709
  O      -69.873     -62.061    -184.376
  C      -67.659     -62.330    -185.334
  O      -67.426     -63.450    -184.454
  C      -68.095     -62.933    -186.659
  O      -67.858     -62.058    -187.751
  C      -67.177     -64.143    -186.740
  O      -65.865     -63.733    -187.180
  C      -67.125     -64.606    -185.280
  N      -67.609     -69.528    -183.967
  C      -66.522     -68.776    -184.260
  N      -66.478     -67.474    -184.611
  C      -67.719     -66.958    -184.685
  C      -68.917     -67.613    -184.452
  C      -68.834     -68.957    -184.066
  N      -69.938     -69.718    -183.738
  N      -69.981     -66.756    -184.629
  C      -69.436     -65.601    -184.953
  N      -68.070     -65.667    -184.991
  O      -70.312     -61.618    -181.940
  O      -71.139     -59.879    -183.639
  H      -65.915     -63.624    -188.151
  H      -69.735     -60.878    -181.665
  H      -65.566     -69.286    -184.195
  H      -69.985     -64.692    -185.158
  H      -66.131     -64.962    -184.990
  H      -67.530     -64.898    -187.451
  H      -69.139     -63.268    -186.620
  H      -66.709     -61.790    -185.449
  H      -68.242     -60.943    -183.798
  H      -69.786     -70.611    -183.295
  H      -70.824     -69.241    -183.617
  H      -68.905     -60.559    -185.405
  P      -69.020     -61.948    -188.854
  C      -69.756     -63.446    -190.850
  O      -68.848     -63.241    -189.784
  O      -68.528     -60.738    -189.780
  O      -70.382     -61.714    -188.289
  H      -69.291     -60.313    -190.219
  H      -69.321     -64.168    -191.546
  H      -69.945     -62.511    -191.391
  H      -70.699     -63.846    -190.464
  H      -73.986     -62.703    -184.381
  H      -72.667     -62.221    -185.421
  H      -73.508     -61.024    -184.464

 3  4  5  6  7  8  9  10  11  12  22  25  29  30  31  32 0
 6-311+G(2d,p)
 ****
 33  36  37 0
 6-311+G(2d,p)
 ****
 1  2  13  14  15  16  17  18  19  20  21  23  24  26 0
 3-21G
 ****
 27  28  34  35  38  39  40  41  42  43  44  45  46  47  48 0
 3-21G
 ****


