%nproc=1
%NoSave
%Mem=1900MB
#P OB98/GEN NMR

erre ene a

0 1
  C     -135.957    -123.468    -368.158
  O     -135.502    -122.294    -368.797
  P     -136.539    -121.281    -369.482
  C     -134.823    -119.904    -370.825
  O     -135.878    -120.855    -370.885
  C     -133.940    -120.010    -372.067
  O     -133.118    -121.208    -372.017
  C     -134.718    -120.139    -373.369
  O     -135.496    -119.025    -373.779
  C     -133.632    -120.611    -374.318
  O     -132.831    -119.520    -374.782
  C     -132.793    -121.539    -373.396
  N     -133.030    -122.950    -373.688
  C     -132.532    -123.416    -374.901
  O     -131.925    -122.700    -375.703
  N     -132.773    -124.729    -375.181
  C     -133.500    -125.600    -374.412
  O     -133.720    -126.754    -374.753
  C     -134.017    -125.047    -373.145
  C     -133.763    -123.773    -372.846
  O     -136.975    -120.141    -368.627
  O     -137.735    -122.246    -369.950
  H     -132.237    -119.865    -375.475
  H     -137.470    -122.947    -370.576
  H     -132.439    -125.082    -376.067
  H     -134.577    -125.710    -372.505
  H     -134.131    -123.342    -371.922
  H     -131.718    -121.333    -373.525
  H     -134.044    -121.104    -375.203
  H     -135.428    -120.972    -373.265
  H     -133.258    -119.151    -372.075
  H     -134.212    -120.109    -369.936
  H     -135.243    -118.893    -370.718
  P     -136.782    -119.154    -374.723
  C     -136.673    -116.574    -374.970
  O     -136.892    -117.819    -375.599
  O     -138.038    -119.663    -374.085
  O     -136.283    -120.223    -375.810
  H     -137.045    -120.746    -376.119
  H     -136.832    -115.777    -375.704
  H     -135.639    -116.506    -374.604
  H     -137.375    -116.432    -374.135
  H     -135.120    -124.008    -367.766
  H     -136.477    -124.080    -368.865
  H     -136.618    -123.206    -367.359

 3  4  5  6  7  8  9  10  11  12  13  23  28  29  30  31  32 0
 6-311+G(2d,p)
 ****
 33  34 0
 6-311+G(2d,p)
 ****
 1  2  14  15  16  17  18  19  20  21  22  24  25  26  27 0
 3-21G
 ****
 35  36  37  38  39  40  41  42  43  44  45 0
 3-21G
 ****


