%nproc=1
%NoSave
%Mem=1900MB
#P OB98/GEN NMR

erre ene a

0 1
  C     -530.084    -265.690     -80.802
  O     -529.068    -265.246     -81.681
  H     -530.279    -264.934     -80.036
  H     -531.000    -265.850     -81.378
  H     -529.794    -266.633     -80.333
  P     -527.626    -264.960     -81.032
  C     -526.272    -266.572     -82.558
  O     -526.561    -265.227     -82.204
  C     -526.015    -266.666     -84.057
  O     -527.250    -266.486     -84.785
  C     -525.061    -265.607     -84.596
  O     -523.704    -265.948     -84.381
  C     -525.410    -265.647     -86.074
  O     -524.802    -266.798     -86.687
  C     -526.936    -265.804     -86.031
  N     -528.391    -261.916     -89.027
  C     -527.657    -263.022     -89.275
  N     -527.310    -264.009     -88.424
  C     -527.803    -263.772     -87.198
  C     -528.559    -262.683     -86.789
  C     -528.861    -261.726     -87.772
  N     -529.593    -260.586     -87.517
  N     -528.848    -262.766     -85.441
  C     -528.305    -263.902     -85.052
  N     -527.651    -264.541     -86.074
  O     -527.401    -266.205     -80.048
  O     -527.478    -263.648     -80.339
  H     -525.135    -267.579     -86.204
  H     -526.732    -265.981     -79.375
  H     -527.300    -263.131     -90.298
  H     -528.354    -264.305     -84.047
  H     -527.315    -266.423     -86.851
  H     -525.058    -264.768     -86.621
  H     -525.294    -264.611     -84.197
  H     -525.644    -267.676     -84.276
  H     -527.129    -267.202     -82.294
  H     -529.595    -259.881     -88.237
  H     -529.815    -260.363     -86.557
  H     -525.394    -266.910     -81.998
  P     -522.624    -264.762     -84.445
  C     -522.258    -264.440     -81.888
  O     -521.729    -264.912     -83.127
  O     -523.500    -263.454     -84.152
  O     -521.874    -264.667     -85.733
  H     -523.094    -262.666     -84.553
  H     -521.546    -264.610     -81.108
  H     -523.164    -264.964     -81.664
  H     -522.461    -263.392     -81.963

 6  7  8  9  10  11  12  13  14  15  25  28  32  33  34  35 0
 6-311+G(2d,p)
 ****
 36  39  40 0
 6-311+G(2d,p)
 ****
 1  2  3  4  5  16  17  18  19  20  21  22  23  24 0
 3-21G
 ****
 26  27  29  30  31  37  38  41  42  43  44  45  46  47 0
 3-21G
 ****
 48 0
 3-21G
 ****


