%nproc=1
%NoSave
%Mem=1900MB
#P OB98/GEN NMR

erre ene a

0 1
  C      -13.077      71.104     236.233
  O      -12.125      70.445     235.420
  H      -13.056      70.654     237.229
  H      -14.082      70.987     235.817
  H      -12.834      72.166     236.323
  P      -11.966      70.924     233.900
  C      -12.929      68.687     233.040
  O      -13.060      70.102     233.063
  C      -14.299      68.031     233.162
  O      -15.046      68.619     234.246
  C      -15.169      68.173     231.911
  O      -14.801      67.208     230.939
  C      -16.546      67.932     232.506
  O      -16.736      66.522     232.736
  C      -16.442      68.681     233.846
  N      -20.165      71.993     234.782
  C      -20.148      70.617     234.909
  N      -21.304      70.041     235.303
  N      -19.101      69.876     234.653
  C      -18.042      70.587     234.205
  C      -17.943      71.949     234.020
  C      -19.086      72.764     234.357
  O      -19.138      73.988     234.276
  N      -16.729      72.295     233.484
  C      -16.082      71.151     233.382
  N      -16.841      70.079     233.792
  O      -10.585      70.852     233.320
  O      -12.542      72.417     233.896
  H      -16.021      66.237     233.333
  H      -11.832      73.068     234.044
  H      -21.009      72.510     234.975
  H      -15.067      71.043     233.018
  H      -17.036      68.207     234.634
  H      -17.358      68.271     231.860
  H      -22.192      70.522     235.231
  H      -15.136      69.191     231.508
  H      -21.328      69.030     235.353
  H      -14.146      66.973     233.412
  H      -12.291      68.401     233.883
  H      -12.449      68.363     232.111
  P      -14.193      67.650     229.520
  C      -16.297      66.690     228.375
  O      -15.463      67.824     228.558
  O      -13.125      66.756     228.988
  O      -13.716      69.159     229.743
  H      -12.790      69.240     230.078
  H      -17.101      66.941     227.715
  H      -16.694      66.383     229.320
  H      -15.725      65.891     227.952

 6  7  8  9  10  11  12  13  14  15  26  29  33  34 0
 6-311+G(2d,p)
 ****
 36  38  39  40  41 0
 6-311+G(2d,p)
 ****
 1  2  3  4  5  16  17  18  19  20  21  22  23  24  25 0
 3-21G
 ****
 27  28  30  31  32  35  37  42  43  44  45  46  47 0
 3-21G
 ****
 48  49 0
 3-21G
 ****


