%nproc=1
%NoSave
%Mem=1900MB
#P OB98/GEN NMR

erre ene a

0 1
  C       -6.341     254.715    -151.673
  O       -7.074     253.520    -151.930
  P       -7.466     252.991    -153.383
  C       -5.896     250.896    -153.215
  O       -7.203     251.412    -153.425
  C       -5.851     249.777    -152.163
  O       -6.000     250.353    -150.838
  C       -7.025     248.815    -152.350
  O       -6.942     247.768    -153.296
  C       -7.374     248.353    -150.942
  O       -6.732     247.127    -150.593
  C       -6.860     249.495    -150.060
  N      -10.819     249.577    -146.821
  C      -10.023     248.514    -147.198
  N      -10.349     247.306    -146.693
  N       -9.013     248.623    -148.017
  C       -8.847     249.867    -148.518
  C       -9.584     250.995    -148.236
  C      -10.668     250.877    -147.283
  O      -11.396     251.789    -146.904
  N       -9.140     252.076    -148.954
  C       -8.157     251.599    -149.686
  N       -7.935     250.262    -149.453
  O       -6.945     253.794    -154.525
  O       -9.075     253.107    -153.398
  H       -5.773     247.245    -150.712
  H       -9.332     253.311    -154.322
  H      -11.571     249.440    -146.169
  H       -7.571     252.175    -150.392
  H       -6.249     249.111    -149.233
  H       -8.452     248.174    -150.851
  H      -11.185     247.134    -146.157
  H       -7.883     249.419    -152.679
  H       -9.910     246.497    -147.134
  H       -4.880     249.279    -152.163
  H       -5.270     251.738    -152.906
  H       -5.484     250.532    -154.157
  P       -8.132     246.792    -153.739
  C       -8.106     247.650    -156.153
  O       -7.988     246.519    -155.309
  O       -9.437     247.715    -153.664
  O       -8.293     245.569    -152.897
  H      -10.243     247.164    -153.661
  H       -8.299     247.316    -157.173
  H       -7.171     248.217    -156.136
  H       -8.927     248.295    -155.829
  H       -6.215     254.836    -150.617
  H       -6.877     255.554    -152.067
  H       -5.381     254.653    -152.142

 3  4  5  6  7  8  9  10  11  12  23  26  30  31 0
 6-311+G(2d,p)
 ****
 33  35  36  37  38 0
 6-311+G(2d,p)
 ****
 1  2  13  14  15  16  17  18  19  20  21  22  24  25 0
 3-21G
 ****
 27  28  29  32  34  39  40  41  42  43  44  45  46  47  48  49 0
 3-21G
 ****


