%nproc=1
%NoSave
%Mem=1900MB
#P OB98/GEN NMR

erre ene a

0 1
  C      505.097     -95.214     -54.877
  O      506.426     -94.773     -54.693
  H      504.708     -94.775     -55.800
  H      504.467     -94.894     -54.044
  H      505.067     -96.304     -54.971
  P      507.210     -95.222     -53.370
  C      505.571     -93.772     -52.001
  O      506.187     -95.048     -52.146
  C      505.331     -93.468     -50.518
  O      506.615     -93.503     -49.848
  C      504.709     -92.082     -50.296
  O      503.526     -92.120     -49.499
  C      505.879     -91.252     -49.783
  O      505.513     -90.152     -48.975
  C      506.763     -92.291     -49.085
  N      508.170     -91.907     -48.996
  C      508.730     -91.832     -47.723
  O      508.142     -92.085     -46.674
  N      510.048     -91.451     -47.680
  C      510.830     -91.141     -48.748
  O      512.007     -90.812     -48.647
  C      510.176     -91.217     -50.064
  C      508.895     -91.589     -50.126
  O      508.545     -94.589     -53.163
  O      507.330     -96.813     -53.512
  H      504.899     -90.478     -48.288
  H      508.234     -97.047     -53.797
  H      510.466     -91.405     -46.763
  H      510.765     -90.967     -50.934
  H      508.381     -91.659     -51.080
  H      506.405     -92.480     -48.073
  H      506.417     -90.847     -50.649
  H      504.359     -91.655     -51.243
  H      504.711     -94.263     -50.090
  H      504.621     -93.795     -52.543
  H      506.215     -93.001     -52.437
  P      502.064     -92.429     -50.059
  C      501.471     -89.880     -50.219
  O      501.556     -91.143     -50.862
  O      501.113     -93.034     -49.081
  O      502.333     -93.520     -51.216
  H      501.552     -94.110     -51.230
  H      501.113     -89.149     -50.914
  H      502.440     -89.593     -49.867
  H      500.796     -89.946     -49.392

 6  7  8  9  10  11  12  13  14  15  16  26  31  32  33  34  35 0
 6-311+G(2d,p)
 ****
 36  37 0
 6-311+G(2d,p)
 ****
 1  2  3  4  5  17  18  19  20  21  22  23  24  25 0
 3-21G
 ****
 27  28  29  30  38  39  40  41  42  43  44  45 0
 3-21G
 ****


