%nproc=1
%NoSave
%Mem=1900MB
#P OB98/GEN NMR

erre ene a

0 1
  C       29.956    -681.967    -119.888
  O       29.036    -682.905    -120.415
  P       27.831    -683.363    -119.436
  C       28.551    -685.877    -119.351
  O       28.358    -684.656    -118.646
  C       27.983    -687.038    -118.535
  O       28.862    -687.363    -117.442
  C       26.617    -686.757    -117.927
  O       25.593    -686.955    -118.873
  C       26.594    -687.764    -116.774
  O       26.226    -689.076    -117.248
  C       28.049    -687.732    -116.294
  N       28.542    -687.341    -111.268
  C       28.115    -688.411    -112.041
  N       27.824    -689.551    -111.378
  N       27.989    -688.366    -113.341
  C       28.310    -687.150    -113.872
  C       28.719    -686.027    -113.210
  C       28.904    -686.097    -111.777
  O       29.367    -685.221    -111.054
  N       28.924    -684.977    -114.074
  C       28.665    -685.493    -115.265
  N       28.305    -686.815    -115.198
  O       26.739    -683.942    -120.463
  O       27.278    -682.284    -118.554
  H       25.286    -689.056    -117.529
  H       26.053    -683.272    -120.640
  H       28.625    -687.446    -110.277
  H       28.751    -684.957    -116.199
  H       28.394    -688.721    -115.961
  H       25.864    -687.491    -116.002
  H       27.868    -689.656    -110.378
  H       26.585    -685.734    -117.520
  H       27.502    -690.350    -111.934
  H       27.929    -687.920    -119.202
  H       29.631    -686.029    -119.513
  H       28.069    -685.819    -120.334
  P       24.172    -686.244    -118.595
  C       23.081    -688.498    -117.921
  O       23.382    -687.171    -117.554
  O       23.386    -686.447    -119.978
  O       24.278    -684.799    -118.232
  H       22.831    -685.665    -120.154
  H       23.059    -689.113    -117.015
  H       23.846    -688.917    -118.600
  H       22.113    -688.529    -118.408
  H       30.700    -681.745    -120.624
  H       30.426    -682.378    -119.019
  H       29.438    -681.069    -119.623

 3  4  5  6  7  8  9  10  11  12  23  26  30  31 0
 6-311+G(2d,p)
 ****
 33  35  36  37  38 0
 6-311+G(2d,p)
 ****
 1  2  13  14  15  16  17  18  19  20  21  22  24  25 0
 3-21G
 ****
 27  28  29  32  34  39  40  41  42  43  44  45  46  47  48  49 0
 3-21G
 ****


