%nproc=1
%NoSave
%Mem=1900MB
#P OB98/GEN NMR

erre ene a

0 1
  C      272.734     406.586     388.010
  O      273.444     407.621     388.706
  P      272.816     409.063     389.035
  C      274.706     410.582     388.132
  O      274.028     410.095     389.279
  C      276.048     411.212     388.518
  O      277.052     410.184     388.684
  C      276.649     412.161     387.490
  O      275.967     413.402     387.430
  C      278.091     412.254     387.977
  O      278.234     413.239     389.008
  C      278.335     410.846     388.555
  N      279.253     410.043     387.751
  C      280.609     410.115     388.099
  O      280.988     410.884     388.984
  N      281.501     409.323     387.414
  C      281.090     408.614     386.407
  N      282.013     407.836     385.783
  C      279.698     408.617     385.929
  C      278.841     409.349     386.640
  O      271.811     409.045     390.142
  O      272.155     409.562     387.666
  H      271.428     410.182     387.858
  H      279.186     413.269     389.236
  H      279.405     408.041     385.061
  H      277.786     409.398     386.365
  H      278.729     410.921     389.578
  H      278.784     412.528     387.168
  H      276.628     411.673     386.499
  H      275.915     411.730     389.479
  H      282.960     407.847     386.144
  H      274.079     411.350     387.660
  H      281.797     407.225     385.005
  H      274.850     409.765     387.416
  P      275.592     413.954     385.978
  C      276.156     416.456     386.429
  O      275.159     415.488     386.133
  O      274.216     413.205     385.628
  O      276.627     413.705     384.922
  H      274.206     412.955     384.683
  H      275.840     417.421     386.031
  H      277.123     416.181     385.983
  H      276.266     416.532     387.513
  H      273.362     405.725     387.914
  H      272.457     406.936     387.037
  H      271.854     406.326     388.560

 3  4  5  6  7  8  9  10  11  12  13  24  27  28  29  30  32 0
 6-311+G(2d,p)
 ****
 34  35 0
 6-311+G(2d,p)
 ****
 1  2  14  15  16  17  18  19  20  21  22  23  25  26 0
 3-21G
 ****
 31  33  36  37  38  39  40  41  42  43  44  45  46 0
 3-21G
 ****


