%nproc=1
%NoSave
%Mem=1900MB
#P OB98/GEN NMR

erre ene a

0 1
  C     -174.998     197.762     232.592
  O     -175.591     197.578     233.883
  P     -174.654     197.202     235.129
  C     -173.371     199.170     236.198
  O     -174.600     198.455     236.137
  C     -173.537     200.465     237.004
  O     -174.442     201.385     236.320
  C     -174.118     200.223     238.405
  O     -173.588     201.171     239.344
  C     -175.594     200.532     238.216
  O     -176.235     200.828     239.457
  C     -175.512     201.699     237.231
  N     -179.170     205.107     236.069
  C     -178.006     205.227     236.754
  N     -177.074     204.284     237.000
  C     -177.426     203.110     236.453
  C     -178.575     202.835     235.720
  C     -179.480     203.894     235.541
  N     -180.677     203.759     234.872
  N     -178.597     201.513     235.323
  C     -177.503     200.987     235.844
  N     -176.749     201.920     236.507
  O     -173.324     196.611     234.781
  O     -175.553     196.150     235.942
  H     -177.194     200.868     239.290
  H     -174.982     195.412     236.250
  H     -177.803     206.221     237.157
  H     -177.224     199.943     235.781
  H     -175.251     202.637     237.737
  H     -176.103     199.666     237.764
  H     -173.957     199.209     238.794
  H     -172.562     200.970     237.069
  H     -173.025     199.398     235.186
  H     -181.315     204.543     234.891
  H     -180.981     202.835     234.602
  H     -172.599     198.523     236.635
  P     -172.472     200.609     240.369
  C     -170.391     201.196     238.891
  O     -171.137     201.444     240.060
  O     -172.343     199.119     240.338
  O     -172.994     201.179     241.773
  H     -173.195     202.134     241.770
  H     -169.604     201.955     238.810
  H     -171.031     201.269     237.999
  H     -169.935     200.205     238.937
  H     -175.760     198.006     231.881
  H     -174.507     196.859     232.293
  H     -174.284     198.558     232.638

 3  4  5  6  7  8  9  10  11  12  22  25  29  30  31  32 0
 6-311+G(2d,p)
 ****
 33  36  37 0
 6-311+G(2d,p)
 ****
 1  2  13  14  15  16  17  18  19  20  21  23  24  26 0
 3-21G
 ****
 27  28  34  35  38  39  40  41  42  43  44  45  46  47  48 0
 3-21G
 ****


