%nproc=1
%NoSave
%Mem=1900MB
#P OB98/GEN NMR

erre ene a

0 1
  C       -0.026       2.941      32.738
  O        1.026       3.877      32.629
  P        0.800       5.459      32.659
  C        2.331       7.509      33.122
  O        2.071       6.133      33.380
  C        3.023       8.218      34.294
  O        2.162       8.182      35.452
  C        4.303       7.473      34.682
  O        5.505       7.708      33.978
  C        4.406       7.622      36.196
  O        5.294       8.671      36.585
  C        2.971       7.950      36.617
  N        2.413       5.982      41.259
  C        2.907       7.219      40.892
  N        3.495       7.935      41.874
  N        2.846       7.692      39.673
  C        2.315       6.819      38.781
  C        1.781       5.574      39.029
  C        1.817       5.083      40.386
  O        1.467       3.958      40.738
  N        1.400       4.946      37.872
  C        1.741       5.789      36.920
  N        2.335       6.922      37.420
  O       -0.568       5.936      33.026
  O        1.045       5.844      31.111
  H        5.179       8.824      37.539
  H        0.449       6.587      30.897
  H        2.559       5.638      42.200
  H        1.610       5.615      35.857
  H        2.944       8.877      37.206
  H        4.796       6.704      36.650
  H        3.689       7.544      42.786
  H        4.107       6.406      34.520
  H        4.016       8.765      41.611
  H        3.179       9.278      34.075
  H        1.372       7.986      32.893
  H        2.955       7.601      32.228
  P        6.612       6.618      33.598
  C        8.827       6.845      32.337
  O        7.445       7.159      32.344
  O        5.777       5.404      32.972
  O        7.444       6.140      34.745
  H        6.294       4.578      33.037
  H        9.340       7.501      31.626
  H        8.965       5.805      32.023
  H        9.266       6.986      33.329
  H        0.373       1.949      32.692
  H       -0.717       3.086      31.934
  H       -0.531       3.079      33.671

 3  4  5  6  7  8  9  10  11  12  23  26  30  31 0
 6-311+G(2d,p)
 ****
 33  35  36  37  38 0
 6-311+G(2d,p)
 ****
 1  2  13  14  15  16  17  18  19  20  21  22  24  25 0
 3-21G
 ****
 27  28  29  32  34  39  40  41  42  43  44  45  46  47  48  49 0
 3-21G
 ****


