%nproc=1
%NoSave
%Mem=1900MB
#P OB98/GEN NMR

erre ene a

0 1
  C      285.624    -680.187      -7.737
  O      285.033    -678.942      -7.400
  P      284.225    -678.852      -6.015
  C      282.270    -680.230      -4.993
  O      282.996    -679.868      -6.170
  C      280.874    -680.737      -5.364
  O      280.947    -682.101      -5.813
  C      279.889    -680.740      -4.205
  O      279.314    -679.456      -3.985
  C      278.836    -681.706      -4.727
  O      277.979    -681.044      -5.669
  C      279.700    -682.744      -5.446
  N      277.833    -687.142      -3.612
  C      277.266    -686.167      -4.341
  N      277.829    -685.025      -4.780
  C      279.104    -684.919      -4.354
  C      279.795    -685.822      -3.562
  C      279.121    -686.991      -3.195
  N      279.702    -688.006      -2.476
  N      281.082    -685.368      -3.327
  C      281.154    -684.221      -3.979
  N      279.993    -683.911      -4.622
  O      283.528    -677.415      -6.101
  O      285.053    -679.005      -4.785
  H      277.516    -680.335      -5.180
  H      283.315    -677.090      -5.199
  H      276.231    -686.332      -4.616
  H      282.037    -683.592      -4.014
  H      279.238    -683.114      -6.369
  H      278.198    -682.106      -3.936
  H      280.335    -681.144      -3.292
  H      280.508    -680.116      -6.188
  H      282.182    -679.352      -4.352
  H      279.206    -688.879      -2.407
  H      280.710    -687.971      -2.345
  H      282.832    -681.006      -4.454
  P      278.856    -679.112      -2.481
  C      277.544    -680.429      -0.657
  O      278.011    -680.379      -2.004
  O      277.758    -677.970      -2.696
  O      279.970    -678.682      -1.592
  H      277.691    -677.410      -1.897
  H      276.746    -681.177      -0.593
  H      277.137    -679.453      -0.356
  H      278.363    -680.708      -0.002
  H      286.126    -680.101      -8.678
  H      284.863    -680.936      -7.806
  H      286.329    -680.463      -6.981

 3  4  5  6  7  8  9  10  11  12  22  25  29  30  31  32 0
 6-311+G(2d,p)
 ****
 33  36  37 0
 6-311+G(2d,p)
 ****
 1  2  13  14  15  16  17  18  19  20  21  23  24  26 0
 3-21G
 ****
 27  28  34  35  38  39  40  41  42  43  44  45  46  47  48 0
 3-21G
 ****


