%nproc=1
%NoSave
%Mem=1900MB
#P OB98/GEN NMR

erre ene a

0 1
  C     -498.293     145.704      74.527
  O     -497.810     146.785      73.757
  P     -497.340     148.173      74.388
  C     -499.692     149.212      74.005
  O     -498.643     148.948      74.931
  C     -500.854     149.998      74.631
  O     -501.383     149.267      75.756
  C     -500.350     151.341      75.179
  O     -500.208     152.450      74.325
  C     -501.189     151.588      76.430
  O     -502.282     152.482      76.187
  C     -501.703     150.194      76.800
  N     -502.771     148.899      81.589
  C     -503.635     149.092      80.529
  N     -504.951     149.127      80.834
  N     -503.242     149.255      79.291
  C     -501.891     149.293      79.159
  C     -500.934     149.107      80.132
  C     -501.389     148.884      81.485
  O     -500.656     148.790      82.469
  N     -499.660     149.287      79.649
  C     -499.848     149.628      78.383
  N     -501.185     149.684      78.055
  O     -496.315     148.953      73.622
  O     -496.639     147.682      75.754
  H     -502.680     152.713      77.052
  H     -495.892     148.278      75.938
  H     -503.135     148.855      82.534
  H     -499.059     149.874      77.686
  H     -502.802     150.202      76.887
  H     -500.583     152.059      77.218
  H     -505.283     149.146      81.788
  H     -499.337     151.159      75.562
  H     -505.597     149.431      80.113
  H     -501.687     150.099      73.922
  H     -500.042     148.253      73.617
  H     -499.295     149.777      73.155
  P     -499.171     153.662      74.506
  C     -501.010     155.248      75.308
  O     -499.753     154.669      75.606
  O     -499.311     154.498      73.143
  O     -497.753     153.247      74.715
  H     -498.496     155.028      73.001
  H     -501.163     156.120      75.946
  H     -501.806     154.523      75.500
  H     -501.066     155.561      74.264
  H     -498.543     144.889      73.880
  H     -499.164     146.012      75.067
  H     -497.537     145.392      75.217

 3  4  5  6  7  8  9  10  11  12  23  26  30  31 0
 6-311+G(2d,p)
 ****
 33  35  36  37  38 0
 6-311+G(2d,p)
 ****
 1  2  13  14  15  16  17  18  19  20  21  22  24  25 0
 3-21G
 ****
 27  28  29  32  34  39  40  41  42  43  44  45  46  47  48  49 0
 3-21G
 ****


