%nproc=1
%NoSave
%Mem=1900MB
#P OB98/GEN NMR

erre ene a

0 1
  C     -476.181    -882.439      -5.849
  O     -477.450    -882.972      -5.513
  H     -475.537    -883.264      -6.176
  H     -475.720    -881.963      -4.967
  H     -476.276    -881.718      -6.662
  P     -478.536    -881.922      -4.965
  C     -479.627    -884.010      -3.922
  O     -479.839    -882.818      -4.654
  C     -480.918    -884.464      -3.236
  O     -481.382    -883.418      -2.360
  C     -482.052    -884.763      -4.234
  O     -482.804    -885.893      -3.762
  C     -482.927    -883.526      -4.163
  O     -484.279    -883.784      -4.524
  C     -482.736    -883.087      -2.706
  N     -486.385    -879.557      -2.210
  C     -486.428    -880.904      -2.232
  N     -485.419    -881.768      -2.345
  C     -484.226    -881.119      -2.415
  C     -484.021    -879.740      -2.409
  C     -485.181    -878.953      -2.314
  N     -485.143    -877.578      -2.322
  N     -482.672    -879.458      -2.547
  C     -482.080    -880.628      -2.603
  N     -482.976    -881.656      -2.544
  O     -478.777    -880.725      -5.825
  O     -477.986    -881.608      -3.490
  H     -484.810    -882.991      -4.314
  H     -477.699    -882.426      -3.038
  H     -487.436    -881.346      -2.138
  H     -481.006    -880.795      -2.697
  H     -483.416    -883.623      -2.023
  H     -482.524    -882.769      -4.843
  H     -481.682    -884.960      -5.234
  H     -480.701    -885.338      -2.612
  H     -478.853    -883.850      -3.153
  H     -486.012    -877.062      -2.237
  H     -484.250    -877.093      -2.394
  H     -479.266    -884.775      -4.611
  P     -482.427    -887.333      -4.347
  C     -484.760    -888.426      -4.006
  O     -483.365    -888.438      -3.635
  O     -480.988    -887.682      -4.397
  O     -483.055    -887.280      -5.839
  H     -482.455    -887.760      -6.445
  H     -485.277    -889.197      -3.474
  H     -484.851    -888.597      -5.058
  H     -485.186    -887.476      -3.761

 6  7  8  9  10  11  12  13  14  15  25  28  32  33  34  35 0
 6-311+G(2d,p)
 ****
 36  39  40 0
 6-311+G(2d,p)
 ****
 1  2  3  4  5  16  17  18  19  20  21  22  23  24 0
 3-21G
 ****
 26  27  29  30  31  37  38  41  42  43  44  45  46  47 0
 3-21G
 ****
 48 0
 3-21G
 ****


