%nproc=1
%NoSave
%Mem=1900MB
#P OB98/GEN NMR

erre ene a

0 1
  C      -69.881      15.659     103.874
  O      -70.834      16.728     103.943
  P      -70.408      18.259     103.722
  C      -70.385      18.716     101.196
  O      -71.117      18.860     102.408
  C      -71.269      18.801      99.942
  O      -72.275      17.750      99.940
  C      -72.018      20.130      99.768
  O      -72.141      20.332      98.359
  C      -73.375      19.810     100.381
  O      -74.403      20.706      99.983
  C      -73.570      18.377      99.891
  N      -78.238      18.463     102.007
  C      -77.647      19.271     101.099
  N      -76.418      19.162     100.555
  C      -75.789      18.064     101.007
  C      -76.266      17.137     101.924
  C      -77.552      17.379     102.446
  N      -78.140      16.583     103.405
  N      -75.324      16.157     102.168
  C      -74.291      16.488     101.416
  N      -74.525      17.633     100.691
  O      -68.932      18.499     103.781
  O      -71.130      19.045     104.922
  H      -75.253      20.373     100.332
  H      -70.495      19.664     105.329
  H      -78.241      20.120     100.768
  H      -73.351      15.959     101.373
  H      -73.915      18.354      98.848
  H      -73.296      19.861     101.475
  H      -71.525      20.977     100.244
  H      -70.623      18.614      99.071
  H      -69.870      17.743     101.213
  H      -79.022      16.885     103.782
  H      -77.597      15.845     103.835
  H      -69.617      19.496     101.153
  P      -71.495      21.609      97.632
  C      -69.008      21.062      97.915
  O      -70.096      21.123      97.010
  O      -71.413      22.839      98.476
  O      -72.412      21.842      96.338
  H      -72.286      22.757      96.011
  H      -68.637      22.073      98.118
  H      -68.209      20.466      97.471
  H      -69.311      20.591      98.859
  H      -70.377      14.727     104.051
  H      -69.125      15.807     104.616
  H      -69.430      15.645     102.904

 3  4  5  6  7  8  9  10  11  12  22  25  29  30  31  32 0
 6-311+G(2d,p)
 ****
 33  36  37 0
 6-311+G(2d,p)
 ****
 1  2  13  14  15  16  17  18  19  20  21  23  24  26 0
 3-21G
 ****
 27  28  34  35  38  39  40  41  42  43  44  45  46  47  48 0
 3-21G
 ****


