%nproc=1
%NoSave
%Mem=1900MB
#P OB98/GEN NMR

erre ene a

0 1
  C      -17.132     119.125     -99.998
  O      -16.400     118.163    -100.729
  H      -17.669     119.765    -100.703
  H      -16.457     119.746     -99.402
  H      -17.857     118.629     -99.349
  P      -15.492     117.152     -99.876
  C      -13.650     118.916     -99.499
  O      -14.649     118.104     -98.893
  C      -12.421     119.011     -98.594
  O      -12.730     119.900     -97.488
  C      -11.992     117.666     -97.999
  O      -10.567     117.627     -97.909
  C      -12.580     117.705     -96.598
  O      -11.901     116.832     -95.701
  C      -12.457     119.191     -96.267
  N      -13.441     118.795     -91.288
  C      -12.363     118.455     -92.027
  N      -12.175     118.619     -93.353
  C      -13.226     119.254     -93.906
  C      -14.391     119.661     -93.283
  C      -14.484     119.399     -91.904
  N      -15.591     119.708     -91.148
  N      -15.252     120.234     -94.198
  C      -14.612     120.183     -95.353
  N      -13.391     119.579     -95.226
  O      -14.681     116.185    -100.671
  O      -16.564     116.498     -98.885
  H      -11.836     115.947     -96.119
  H      -17.142     117.176     -98.485
  H      -11.549     117.980     -91.486
  H      -14.993     120.550     -96.300
  H      -11.452     119.464     -95.921
  H      -13.633     117.400     -96.629
  H      -12.350     116.810     -98.570
  H      -11.604     119.476     -99.157
  H      -14.044     119.921     -99.687
  H      -15.573     119.487     -90.165
  H      -16.378     120.164     -91.585
  H      -13.383     118.462    -100.459
  P       -9.724     117.055     -99.146
  C      -10.545     114.671     -98.617
  O      -10.377     115.664     -99.617
  O       -8.244     117.024     -98.962
  O      -10.132     118.046    -100.340
  H       -9.334     118.262    -100.862
  H      -10.986     113.798     -99.052
  H      -11.184     115.047     -97.845
  H       -9.592     114.420     -98.200

 6  7  8  9  10  11  12  13  14  15  25  28  32  33  34  35 0
 6-311+G(2d,p)
 ****
 36  39  40 0
 6-311+G(2d,p)
 ****
 1  2  3  4  5  16  17  18  19  20  21  22  23  24 0
 3-21G
 ****
 26  27  29  30  31  37  38  41  42  43  44  45  46  47 0
 3-21G
 ****
 48 0
 3-21G
 ****


