%nproc=1
%NoSave
%Mem=1900MB
#P OB98/GEN NMR

erre ene a

0 1
  C       22.659     198.248     -32.156
  O       23.714     197.499     -31.550
  P       23.441     196.758     -30.155
  C       23.610     198.886     -28.712
  O       22.785     197.811     -29.132
  C       23.409     199.175     -27.217
  O       22.101     199.773     -26.981
  C       23.485     197.905     -26.357
  O       24.047     198.201     -25.071
  C       22.024     197.547     -26.157
  O       21.842     196.703     -25.023
  C       21.408     198.938     -26.031
  N       16.746     198.569     -23.942
  C       17.979     198.599     -23.388
  N       19.173     198.721     -24.005
  C       19.011     198.836     -25.335
  C       17.818     198.831     -26.039
  C       16.640     198.682     -25.285
  N       15.387     198.622     -25.851
  N       18.045     198.964     -27.395
  C       19.358     198.999     -27.508
  N       19.983     198.959     -26.292
  O       24.584     195.976     -29.603
  O       22.203     195.799     -30.501
  H       20.938     196.855     -24.688
  H       22.346     194.930     -30.077
  H       18.011     198.505     -22.306
  H       19.901     199.039     -28.440
  H       21.569     199.366     -25.034
  H       21.645     197.021     -27.041
  H       24.052     197.085     -26.808
  H       24.159     199.906     -26.891
  H       23.378     199.780     -29.297
  H       14.614     198.396     -25.245
  H       15.308     198.555     -26.857
  H       24.655     198.645     -28.933
  P       25.339     197.338     -24.647
  C       24.280     195.087     -23.847
  O       24.932     195.806     -24.870
  O       25.876     197.690     -23.299
  O       26.351     197.656     -25.845
  H       25.980     197.540     -26.736
  H       23.977     194.112     -24.239
  H       23.387     195.616     -23.505
  H       24.961     194.929     -23.004
  H       23.006     198.675     -33.074
  H       22.350     199.030     -31.494
  H       21.830     197.601     -32.354

 3  4  5  6  7  8  9  10  11  12  22  25  29  30  31  32 0
 6-311+G(2d,p)
 ****
 33  36  37 0
 6-311+G(2d,p)
 ****
 1  2  13  14  15  16  17  18  19  20  21  23  24  26 0
 3-21G
 ****
 27  28  34  35  38  39  40  41  42  43  44  45  46  47  48 0
 3-21G
 ****


