%nproc=1
%NoSave
%Mem=1900MB
#P OB98/GEN NMR

erre ene a

0 1
  C       79.899     571.846     -28.727
  O       80.055     570.592     -28.071
  P       81.231     570.368     -27.015
  C       83.815     569.988     -27.285
  O       82.505     569.806     -27.785
  C       84.817     569.799     -28.432
  O       84.425     570.595     -29.574
  C       86.224     570.219     -28.024
  O       86.974     569.102     -27.567
  C       86.772     570.833     -29.299
  O       87.244     569.805     -30.191
  C       85.517     571.510     -29.882
  N       85.139     572.844     -29.378
  C       85.785     573.982     -29.867
  O       86.643     573.944     -30.742
  N       85.407     575.174     -29.297
  C       84.455     575.336     -28.335
  O       84.299     576.349     -27.659
  C       83.626     574.150     -28.055
  C       84.012     572.978     -28.562
  O       80.715     569.099     -26.173
  O       81.534     571.538     -26.132
  H       87.457     570.245     -31.042
  H       80.308     569.390     -25.337
  H       85.979     575.979     -29.546
  H       82.770     574.262     -27.411
  H       83.448     572.081     -28.339
  H       85.574     571.584     -30.973
  H       87.626     571.474     -29.091
  H       86.180     571.000     -27.245
  H       84.812     568.744     -28.734
  H       84.010     569.276     -26.476
  H       83.916     571.000     -26.857
  P       88.378     569.327     -26.848
  C       90.421     570.596     -27.756
  O       89.412     569.655     -28.043
  O       88.815     568.247     -25.915
  O       88.200     570.734     -26.101
  H       87.972     570.579     -25.157
  H       91.150     570.594     -28.568
  H       90.934     570.339     -26.819
  H       89.988     571.594     -27.671
  H       79.062     571.799     -29.392
  H       80.785     572.070     -29.284
  H       79.733     572.612     -27.998

 3  4  5  6  7  8  9  10  11  12  13  23  28  29  30  31  32 0
 6-311+G(2d,p)
 ****
 33  34 0
 6-311+G(2d,p)
 ****
 1  2  14  15  16  17  18  19  20  21  22  24  25  26  27 0
 3-21G
 ****
 35  36  37  38  39  40  41  42  43  44  45 0
 3-21G
 ****


