%nproc=1
%NoSave
%Mem=1900MB
#P OB98/GEN NMR

erre ene a

0 1
  C      -35.787      59.363     302.282
  O      -36.919      60.151     301.967
  H      -35.122      59.946     302.922
  H      -35.249      59.087     301.370
  H      -36.097      58.462     302.819
  P      -38.002      59.496     300.982
  C      -37.156      60.455     298.743
  O      -37.218      59.313     299.589
  C      -36.123      60.242     297.636
  O      -36.320      61.262     296.621
  C      -34.673      60.347     298.122
  O      -33.868      59.415     297.400
  C      -34.279      61.762     297.728
  O      -32.865      61.914     297.603
  C      -35.061      61.932     296.426
  N      -32.812      66.082     294.514
  C      -32.435      64.786     294.552
  N      -33.108      63.735     295.065
  C      -34.318      64.124     295.522
  C      -34.838      65.405     295.552
  C      -34.021      66.423     295.021
  N      -34.379      67.750     295.010
  N      -36.086      65.404     296.140
  C      -36.320      64.141     296.454
  N      -35.266      63.335     296.117
  O      -39.306      60.213     300.887
  O      -38.081      57.993     301.530
  H      -32.669      62.858     297.434
  H      -37.192      57.621     301.684
  H      -31.459      64.564     294.125
  H      -37.217      63.770     296.937
  H      -34.552      61.479     295.564
  H      -34.625      62.470     298.486
  H      -34.568      60.177     299.195
  H      -36.313      59.276     297.155
  H      -36.892      61.342     299.326
  H      -33.732      68.412     294.610
  H      -35.278      68.023     295.379
  H      -38.154      60.607     298.311
  P      -33.159      58.215     298.197
  C      -30.718      59.050     298.155
  O      -31.865      58.798     298.955
  O      -32.921      56.968     297.414
  O      -34.174      57.947     299.410
  H      -34.264      56.983     299.544
  H      -29.931      59.432     298.771
  H      -30.961      59.768     297.400
  H      -30.399      58.140     297.692

 6  7  8  9  10  11  12  13  14  15  25  28  32  33  34  35 0
 6-311+G(2d,p)
 ****
 36  39  40 0
 6-311+G(2d,p)
 ****
 1  2  3  4  5  16  17  18  19  20  21  22  23  24 0
 3-21G
 ****
 26  27  29  30  31  37  38  41  42  43  44  45  46  47 0
 3-21G
 ****
 48 0
 3-21G
 ****


