%nproc=1
%NoSave
%Mem=1900MB
#P OB98/GEN NMR

erre ene a

0 1
  C      188.306     -90.617      52.079
  O      188.995     -89.786      51.169
  P      190.596     -89.675      51.178
  C      190.485     -88.096      53.206
  O      190.930     -88.265      51.868
  C      191.435     -87.196      54.000
  O      190.846     -86.893      55.296
  C      192.823     -87.799      54.253
  O      193.744     -86.704      54.240
  C      192.685     -88.362      55.655
  O      193.942     -88.583      56.284
  C      191.795     -87.296      56.306
  N      191.140     -87.791      57.512
  C      191.911     -87.829      58.675
  O      193.108     -87.528      58.639
  N      191.330     -88.259      59.842
  C      190.115     -88.712      59.823
  N      189.589     -89.119      61.009
  C      189.309     -88.807      58.591
  C      189.871     -88.321      57.486
  O      191.254     -89.902      49.860
  O      191.039     -90.721      52.303
  H      193.777     -88.908      57.196
  H      190.988     -91.647      51.953
  H      188.321     -89.243      58.614
  H      189.357     -88.347      56.535
  H      192.387     -86.409      56.573
  H      192.159     -89.323      55.616
  H      193.113     -88.556      53.522
  H      191.531     -86.248      53.458
  H      190.171     -89.022      61.832
  H      190.456     -89.083      53.679
  H      188.630     -89.408      61.118
  H      189.467     -87.693      53.214
  P      195.038     -86.716      53.295
  C      196.324     -88.535      54.554
  O      196.277     -87.165      54.202
  O      195.257     -85.464      52.506
  O      194.815     -87.977      52.331
  H      195.418     -87.913      51.567
  H      197.326     -88.776      54.918
  H      196.098     -89.170      53.692
  H      195.599     -88.733      55.350
  H      187.253     -90.544      51.902
  H      188.522     -90.306      53.080
  H      188.620     -91.631      51.945

 3  4  5  6  7  8  9  10  11  12  13  23  27  28  29  30  32 0
 6-311+G(2d,p)
 ****
 34  35 0
 6-311+G(2d,p)
 ****
 1  2  14  15  16  17  18  19  20  21  22  24  25  26 0
 3-21G
 ****
 31  33  36  37  38  39  40  41  42  43  44  45  46 0
 3-21G
 ****


