%nproc=1
%NoSave
%Mem=1900MB
#P OB98/GEN NMR

erre ene a

0 1
  C       98.710    -249.274     649.981
  O       98.967    -247.890     649.779
  P       99.140    -247.288     648.302
  C      100.924    -247.511     646.456
  O      100.586    -247.790     647.816
  C      102.265    -246.786     646.394
  O      103.206    -247.470     647.274
  C      102.954    -246.750     645.025
  O      102.497    -245.712     644.161
  C      104.387    -246.489     645.438
  O      104.563    -245.088     645.735
  C      104.528    -247.330     646.704
  N      108.686    -249.879     645.160
  C      108.453    -248.547     645.341
  N      107.312    -247.957     645.733
  C      106.366    -248.867     645.990
  C      106.459    -250.240     645.859
  C      107.684    -250.756     645.418
  N      107.940    -252.100     645.261
  N      105.268    -250.861     646.206
  C      104.469    -249.865     646.546
  N      105.089    -248.646     646.446
  O       98.902    -245.817     648.199
  O       98.133    -248.152     647.396
  H      104.523    -244.602     644.895
  H       97.976    -247.697     646.557
  H      109.281    -247.887     645.129
  H      103.445    -249.972     646.879
  H      105.160    -246.843     647.471
  H      105.103    -246.727     644.647
  H      102.889    -247.731     644.526
  H      102.129    -245.760     646.790
  H      100.141    -246.868     646.035
  H      108.897    -252.368     645.069
  H      107.249    -252.757     645.614
  H      100.958    -248.446     645.890
  P      102.790    -245.881     642.591
  C      104.943    -246.582     641.282
  O      104.383    -246.039     642.473
  O      102.172    -244.821     641.739
  O      102.226    -247.353     642.280
  H      102.736    -248.082     642.704
  H      106.018    -246.459     641.341
  H      104.572    -246.047     640.394
  H      104.707    -247.644     641.206
  H       98.628    -249.472     651.029
  H       99.513    -249.850     649.571
  H       97.795    -249.542     649.495

 3  4  5  6  7  8  9  10  11  12  22  25  29  30  31  32 0
 6-311+G(2d,p)
 ****
 33  36  37 0
 6-311+G(2d,p)
 ****
 1  2  13  14  15  16  17  18  19  20  21  23  24  26 0
 3-21G
 ****
 27  28  34  35  38  39  40  41  42  43  44  45  46  47  48 0
 3-21G
 ****


