%nproc=1
%NoSave
%Mem=1900MB
#P OB98/GEN NMR

erre ene a

0 1
  C      118.454      21.443       4.562
  O      117.676      20.272       4.713
  H      118.599      21.894       5.547
  H      117.932      22.157       3.921
  H      119.431      21.200       4.136
  P      117.499      19.352       3.406
  C      115.240      20.344       2.513
  O      116.646      20.234       2.375
  C      114.544      19.144       1.869
  O      113.120      19.248       2.112
  C      114.755      19.045       0.359
  O      114.870      17.666       0.006
  C      113.475      19.623      -0.218
  O      113.226      19.150      -1.541
  C      112.443      19.203       0.839
  N      111.261      20.062       0.833
  C      110.296      19.797      -0.144
  O      110.473      18.892      -0.960
  N      109.177      20.588      -0.204
  C      109.063      21.602       0.597
  N      107.941      22.361       0.474
  C      110.081      21.951       1.607
  C      111.136      21.142       1.676
  O      116.458      18.252       3.923
  O      118.776      18.795       2.873
  H      112.372      19.532      -1.843
  H      115.745      18.619       4.472
  H      109.948      22.816       2.242
  H      111.928      21.320       2.395
  H      112.119      18.168       0.670
  H      113.546      20.717      -0.262
  H      115.632      19.587       0.007
  H      114.883      18.234       2.378
  H      107.277      22.099      -0.244
  H      114.883      21.266       2.044
  H      107.773      23.201       1.008
  H      115.007      20.390       3.581
  P      116.269      17.112      -0.545
  C      115.724      17.245      -3.062
  O      116.535      17.729      -2.003
  O      116.472      15.639      -0.436
  O      117.342      17.898       0.357
  H      118.070      17.280       0.563
  H      116.000      17.732      -3.974
  H      114.696      17.448      -2.846
  H      115.865      16.189      -3.165

 6  7  8  9  10  11  12  13  14  15  16  26  30  31  32  33  35 0
 6-311+G(2d,p)
 ****
 37  38 0
 6-311+G(2d,p)
 ****
 1  2  3  4  5  17  18  19  20  21  22  23  24  25 0
 3-21G
 ****
 27  28  29  34  36  39  40  41  42  43  44  45  46 0
 3-21G
 ****


