%nproc=1
%NoSave
%Mem=1900MB
#P OB98/GEN NMR

erre ene a

0 1
  C      239.855      64.875    -113.912
  O      240.658      63.813    -113.377
  P      240.109      62.317    -113.158
  C      238.896      62.412    -110.885
  O      238.754      62.372    -112.294
  C      238.039      61.342    -110.190
  O      236.626      61.543    -110.510
  C      238.394      59.892    -110.582
  O      238.269      59.103    -109.393
  C      237.298      59.558    -111.590
  O      237.126      58.170    -111.803
  C      236.108      60.256    -110.915
  N      234.918      60.418    -111.750
  C      234.180      59.266    -112.062
  O      234.543      58.150    -111.695
  N      233.035      59.405    -112.815
  C      232.663      60.580    -113.225
  N      231.512      60.647    -113.953
  C      233.420      61.814    -112.938
  C      234.522      61.659    -112.204
  O      241.130      61.382    -112.594
  O      239.625      61.821    -114.604
  H      239.814      60.866    -114.695
  H      236.895      57.759    -110.949
  H      233.072      62.771    -113.293
  H      235.122      62.522    -111.925
  H      235.840      59.712    -109.999
  H      237.555      60.019    -112.549
  H      239.409      59.778    -110.976
  H      238.134      61.475    -109.105
  H      231.015      59.775    -114.123
  H      238.574      63.399    -110.528
  H      231.127      61.507    -114.317
  H      239.955      62.280    -110.623
  P      239.593      58.592    -108.637
  C      239.081      56.077    -109.120
  O      239.982      57.164    -109.254
  O      239.010      58.177    -107.197
  O      240.696      59.593    -108.479
  H      239.724      58.233    -106.533
  H      239.017      55.552    -110.078
  H      238.079      56.400    -108.826
  H      239.475      55.383    -108.365
  H      240.437      65.771    -113.963
  H      239.008      65.035    -113.279
  H      239.522      64.610    -114.894

 3  4  5  6  7  8  9  10  11  12  13  24  27  28  29  30  32 0
 6-311+G(2d,p)
 ****
 34  35 0
 6-311+G(2d,p)
 ****
 1  2  14  15  16  17  18  19  20  21  22  23  25  26 0
 3-21G
 ****
 31  33  36  37  38  39  40  41  42  43  44  45  46 0
 3-21G
 ****


