%nproc=1
%NoSave
%Mem=1900MB
#P OB98/GEN NMR

erre ene a

0 1
  C     -102.471     211.834     -55.627
  O     -102.140     213.099     -56.169
  H     -103.420     211.921     -55.092
  H     -101.697     211.516     -54.920
  H     -102.579     211.094     -56.423
  P     -100.869     213.150     -57.154
  C     -102.078     212.621     -59.427
  O     -101.456     213.580     -58.587
  C     -102.909     213.317     -60.509
  O     -103.688     214.372     -59.890
  C     -102.072     213.947     -61.625
  O     -102.769     213.788     -62.864
  C     -102.022     215.418     -61.243
  O     -101.772     216.254     -62.373
  C     -103.390     215.608     -60.569
  N     -103.401     216.743     -59.644
  C     -103.641     218.005     -60.200
  O     -103.807     218.131     -61.413
  N     -103.640     219.101     -59.372
  C     -103.358     218.962     -58.109
  N     -103.357     220.093     -57.350
  C     -103.049     217.656     -57.493
  C     -103.098     216.599     -58.304
  O     -100.532     211.594     -57.328
  O      -99.735     213.982     -56.648
  H     -101.631     217.174     -62.047
  H     -101.318     211.035     -57.432
  H     -102.806     217.591     -56.441
  H     -102.890     215.602     -57.934
  H     -104.171     215.771     -61.324
  H     -101.216     215.592     -60.518
  H     -101.073     213.522     -61.706
  H     -103.626     212.591     -60.912
  H     -103.555     220.973     -57.818
  H     -102.725     211.961     -58.838
  H     -103.098     220.110     -56.373
  H     -101.293     212.011     -59.884
  P     -102.189     212.773     -63.963
  C     -103.240     210.487     -63.398
  O     -103.279     211.625     -64.245
  O     -100.797     212.285     -63.725
  O     -102.255     213.642     -65.319
  H     -101.454     213.442     -65.846
  H     -104.010     209.802     -63.686
  H     -103.395     210.792     -62.384
  H     -102.286     210.010     -63.485

 6  7  8  9  10  11  12  13  14  15  16  26  30  31  32  33  35 0
 6-311+G(2d,p)
 ****
 37  38 0
 6-311+G(2d,p)
 ****
 1  2  3  4  5  17  18  19  20  21  22  23  24  25 0
 3-21G
 ****
 27  28  29  34  36  39  40  41  42  43  44  45  46 0
 3-21G
 ****


