%nproc=1
%NoSave
%Mem=1900MB
#P OB98/GEN NMR

erre ene a

0 1
  C     -187.560     -28.790     256.391
  O     -186.196     -29.090     256.146
  P     -185.569     -28.634     254.741
  C     -185.510     -30.998     253.575
  O     -186.090     -29.700     253.662
  C     -186.090     -31.752     252.379
  O     -187.508     -31.952     252.564
  C     -185.950     -31.029     251.044
  O     -184.634     -31.124     250.526
  C     -187.018     -31.735     250.213
  O     -186.513     -32.993     249.725
  C     -188.127     -31.974     251.257
  N     -189.215     -31.004     251.171
  C     -190.162     -31.225     250.175
  O     -190.110     -32.180     249.395
  N     -191.169     -30.298     250.089
  C     -191.282     -29.166     250.840
  O     -192.180     -28.346     250.689
  C     -190.237     -28.966     251.852
  C     -189.267     -29.879     251.971
  O     -184.027     -29.006     254.971
  O     -185.833     -27.200     254.416
  H     -183.924     -29.734     255.611
  H     -187.217     -33.370     249.160
  H     -191.879     -30.451     249.389
  H     -190.289     -28.071     252.463
  H     -188.483     -29.745     252.705
  H     -188.549     -32.981     251.137
  H     -187.331     -31.149     249.343
  H     -186.222     -29.969     251.164
  H     -185.610     -32.740     252.331
  H     -185.726     -31.545     254.494
  H     -184.422     -30.892     253.478
  P     -184.261     -30.118     249.323
  C     -184.143     -31.863     247.380
  O     -184.828     -30.787     247.985
  O     -182.675     -30.324     249.230
  O     -184.689     -28.707     249.569
  H     -182.408     -31.262     249.308
  H     -184.837     -32.401     246.728
  H     -183.752     -32.558     248.131
  H     -183.314     -31.477     246.777
  H     -187.836     -29.151     257.359
  H     -188.168     -29.262     255.647
  H     -187.705     -27.731     256.351

 3  4  5  6  7  8  9  10  11  12  13  24  28  29  30  31  32 0
 6-311+G(2d,p)
 ****
 33  34 0
 6-311+G(2d,p)
 ****
 1  2  14  15  16  17  18  19  20  21  22  23  25  26  27 0
 3-21G
 ****
 35  36  37  38  39  40  41  42  43  44  45 0
 3-21G
 ****


