%nproc=1
%NoSave
%Mem=1900MB
#P OB98/GEN NMR

erre ene a

0 1
  C     -122.301      22.626     108.236
  O     -122.956      22.316     107.018
  P     -124.555      22.156     107.044
  C     -126.162      20.165     107.537
  O     -124.862      20.715     107.678
  C     -126.419      19.111     108.616
  O     -126.044      19.667     109.904
  C     -127.876      18.649     108.729
  O     -127.848      17.275     109.138
  C     -128.421      19.505     109.858
  O     -129.581      18.943     110.464
  C     -127.200      19.583     110.767
  N     -128.868      21.361     115.199
  C     -129.101      20.142     114.589
  N     -129.835      19.252     115.293
  N     -128.654      19.823     113.403
  C     -127.925      20.807     112.829
  C     -127.656      22.067     113.312
  C     -128.124      22.393     114.640
  O     -127.867      23.426     115.252
  N     -126.958      22.817     112.403
  C     -126.733      21.984     111.406
  N     -127.258      20.741     111.637
  O     -124.919      21.976     105.499
  O     -125.308      23.278     107.685
  H     -130.246      18.798     109.761
  H     -125.157      22.831     105.090
  H     -129.222      21.543     116.123
  H     -126.196      22.220     110.502
  H     -127.090      18.695     111.402
  H     -128.691      20.496     109.472
  H     -130.183      19.421     116.224
  H     -128.444      18.759     107.802
  H     -129.992      18.339     114.884
  H     -125.759      18.255     108.426
  H     -126.239      19.685     106.557
  H     -126.907      20.966     107.590
  P     -129.149      16.380     108.852
  C     -131.508      16.143     109.894
  O     -130.201      16.667     110.022
  O     -128.636      14.895     109.174
  O     -129.674      16.468     107.456
  H     -129.097      14.259     108.598
  H     -131.955      16.068     110.888
  H     -131.500      15.149     109.435
  H     -132.113      16.818     109.283
  H     -121.247      22.701     108.065
  H     -122.493      21.853     108.951
  H     -122.669      23.558     108.611

 3  4  5  6  7  8  9  10  11  12  23  26  30  31 0
 6-311+G(2d,p)
 ****
 33  35  36  37  38 0
 6-311+G(2d,p)
 ****
 1  2  13  14  15  16  17  18  19  20  21  22  24  25 0
 3-21G
 ****
 27  28  29  32  34  39  40  41  42  43  44  45  46  47  48  49 0
 3-21G
 ****


