%nproc=1
%NoSave
%Mem=1900MB
#P OB98/GEN NMR

erre ene a

0 1
  C      825.766     -85.208     229.895
  O      825.674     -86.075     231.019
  P      824.547     -85.752     232.115
  C      825.899     -87.424     233.565
  O      825.173     -86.203     233.523
  C      826.949     -87.389     234.679
  O      827.990     -86.463     234.335
  C      826.417     -86.925     236.024
  O      825.747     -87.967     236.721
  C      827.709     -86.528     236.727
  O      828.337     -87.700     237.278
  C      828.543     -85.951     235.573
  N      830.441     -81.690     237.561
  C      830.710     -83.014     237.882
  N      831.627     -83.229     238.844
  N      830.121     -84.036     237.302
  C      829.254     -83.669     236.331
  C      828.908     -82.393     235.920
  C      829.530     -81.277     236.603
  O      829.284     -80.086     236.409
  N      827.999     -82.424     234.895
  C      827.828     -83.709     234.643
  N      828.543     -84.506     235.517
  O      823.432     -86.874     231.834
  O      823.977     -84.374     232.047
  H      827.699     -88.113     237.882
  H      822.559     -86.559     232.136
  H      830.943     -80.950     238.021
  H      827.198     -84.108     233.865
  H      829.584     -86.302     235.626
  H      827.544     -85.835     237.556
  H      832.207     -82.495     239.227
  H      825.770     -86.041     235.912
  H      831.868     -84.194     239.065
  H      827.390     -88.391     234.765
  H      826.410     -87.582     232.608
  H      825.194     -88.252     233.725
  P      824.888     -87.535     238.011
  C      824.239     -90.042     238.239
  O      824.725     -88.872     238.878
  O      823.425     -87.283     237.405
  O      825.418     -86.335     238.738
  H      822.930     -86.651     237.965
  H      824.612     -90.118     237.216
  H      823.147     -90.025     238.231
  H      824.581     -90.919     238.803
  H      826.554     -85.540     229.252
  H      825.973     -84.213     230.228
  H      824.840     -85.219     229.359

 3  4  5  6  7  8  9  10  11  12  23  26  30  31  33  0
 6-311+G(2d,p)
 ****
 35  36  37  38 0
 6-311+G(2d,p)
 ****
 1  2  13  14  15  16  17  18  19  20  21  22  24  25  27  28  29 0
 3-21G
 ****
 32  34  39  40  41  42  43  44  45  46  47  48  49 0
 3-21G
 ****


