%nproc=1
%NoSave
%Mem=1900MB
#P OB98/GEN NMR

erre ene a

0 1
  C       85.600      44.960    -205.104
  O       84.264      44.559    -205.334
  H       86.117      45.024    -206.064
  H       86.104      44.217    -204.482
  H       85.635      45.940    -204.619
  P       83.240      44.718    -204.109
  C       81.850      46.502    -205.384
  O       81.856      45.237    -204.737
  C       80.682      46.589    -206.361
  O       80.960      45.820    -207.549
  C       79.359      46.064    -205.809
  O       78.690      47.048    -205.032
  C       78.608      45.785    -207.098
  O       78.118      47.024    -207.655
  C       79.715      45.211    -207.995
  N       78.078      40.792    -209.867
  C       77.650      42.078    -210.131
  N       76.636      42.203    -211.013
  N       78.164      43.144    -209.578
  C       79.155      42.865    -208.697
  C       79.662      41.634    -208.347
  C       79.095      40.466    -208.978
  O       79.446      39.304    -208.787
  N       80.664      41.747    -207.420
  C       80.747      43.041    -207.192
  N       79.850      43.764    -207.941
  O       83.811      46.001    -203.336
  O       83.141      43.538    -203.203
  H       78.896      47.583    -207.834
  H       84.298      45.700    -202.545
  H       77.640      40.002    -210.313
  H       81.441      43.506    -206.505
  H       79.577      45.477    -209.048
  H       77.739      45.140    -206.949
  H       76.180      41.423    -211.458
  H       79.495      45.130    -205.251
  H       76.308      43.137    -211.225
  H       80.581      47.638    -206.669
  H       82.790      46.628    -205.929
  H       81.763      47.288    -204.627
  P       78.074      46.608    -203.618
  C       78.492      49.003    -202.718
  O       77.559      47.947    -202.894
  O       79.375      46.205    -202.777
  O       77.092      45.488    -203.672
  H       79.385      45.240    -202.620
  H       78.013      49.824    -202.226
  H       78.854      49.322    -203.673
  H       79.312      48.659    -202.122

 6  7  8  9  10  11  12  13  14  15  26  29  33  34 0
 6-311+G(2d,p)
 ****
 36  38  39  40  41 0
 6-311+G(2d,p)
 ****
 1  2  3  4  5  16  17  18  19  20  21  22  23  24  25 0
 3-21G
 ****
 27  28  30  31  32  35  37  42  43  44  45  46  47 0
 3-21G
 ****
 48  49 0
 3-21G
 ****


