%nproc=1
%NoSave
%Mem=1900MB
#P OB98/GEN NMR

erre ene a

0 1
  C     1785.732    -504.036     830.852
  O     1786.162    -503.668     832.148
  H     1786.263    -503.421     830.125
  H     1784.655    -503.865     830.745
  H     1785.965    -505.084     830.666
  P     1785.464    -504.419     833.382
  C     1787.640    -505.579     834.138
  O     1786.339    -505.752     833.589
  C     1788.405    -506.893     834.092
  O     1787.911    -507.772     835.144
  C     1788.276    -507.657     832.765
  O     1789.519    -508.323     832.482
  C     1787.238    -508.712     833.062
  O     1787.301    -509.831     832.184
  C     1787.531    -509.010     834.528
  N     1785.348    -513.409     835.934
  C     1786.575    -513.111     835.427
  N     1787.077    -511.915     835.101
  C     1786.203    -510.929     835.412
  C     1784.936    -511.069     835.936
  C     1784.499    -512.375     836.186
  N     1783.242    -512.682     836.664
  N     1784.331    -509.818     836.053
  C     1785.240    -508.952     835.626
  N     1786.371    -509.585     835.196
  O     1783.997    -504.644     833.259
  O     1785.917    -503.523     834.628
  H     1788.147    -510.290     832.357
  H     1786.866    -503.306     834.590
  H     1787.224    -513.966     835.241
  H     1785.105    -507.875     835.581
  H     1788.365    -509.729     834.653
  H     1786.230    -508.263     832.953
  H     1787.986    -507.015     831.932
  H     1789.467    -506.685     834.340
  H     1787.576    -505.221     835.161
  H     1783.025    -513.657     836.817
  H     1782.593    -511.941     836.876
  H     1788.168    -504.814     833.545
  P     1790.833    -507.400     832.284
  C     1792.139    -508.663     834.131
  O     1791.669    -507.398     833.667
  O     1790.619    -506.065     831.703
  O     1791.762    -508.315     831.345
  H     1792.169    -507.748     830.659
  H     1792.674    -508.530     835.048
  H     1792.789    -509.093     833.398
  H     1791.306    -509.315     834.295

 6  7  8  9  10  11  12  13  14  15  25  28  32  33  34  35 0
 6-311+G(2d,p)
 ****
 36  39  40 0
 6-311+G(2d,p)
 ****
 1  2  3  4  5  16  17  18  19  20  21  22  23  24 0
 3-21G
 ****
 26  27  29  30  31  37  38  41  42  43  44  45  46  47 0
 3-21G
 ****
 48 0
 3-21G
 ****


