%nproc=1
%NoSave
%Mem=1900MB
#P OB98/GEN NMR

erre ene a

0 1
  C      400.915     558.940     290.488
  O      402.172     558.703     291.086
  H      401.075     559.400     289.508
  H      400.316     559.626     291.101
  H      400.376     557.997     290.345
  P      402.206     558.132     292.587
  C      403.071     560.362     293.595
  O      403.353     558.994     293.308
  C      404.361     561.119     293.895
  O      404.973     560.628     295.113
  C      405.446     560.989     292.837
  O      405.182     561.744     291.666
  C      406.640     561.514     293.613
  O      406.564     562.950     293.692
  C      406.405     560.864     295.002
  N      407.146     559.624     295.181
  C      408.526     559.734     295.407
  O      409.061     560.842     295.446
  N      409.274     558.590     295.544
  C      408.698     557.434     295.452
  N      409.495     556.329     295.551
  C      407.253     557.265     295.231
  C      406.543     558.388     295.107
  O      402.335     556.646     292.730
  O      400.882     558.725     293.265
  H      406.271     563.261     292.817
  H      400.853     558.392     294.197
  H      406.819     556.274     295.153
  H      405.474     558.345     294.918
  H      406.678     561.564     295.805
  H      407.600     561.265     293.153
  H      405.619     559.934     292.586
  H      404.092     562.169     294.075
  H      410.486     556.480     295.658
  H      402.385     560.390     294.451
  H      409.175     555.413     295.220
  H      402.584     560.832     292.739
  P      405.267     560.988     290.246
  C      407.327     562.357     289.410
  O      405.964     562.010     289.225
  O      403.734     560.952     289.767
  O      405.884     559.622     290.276
  H      403.305     560.122     290.030
  H      407.627     563.043     288.646
  H      407.930     561.475     289.355
  H      407.451     562.815     290.369

 6  7  8  9  10  11  12  13  14  15  16  26  30  31  32  33  35 0
 6-311+G(2d,p)
 ****
 37  38 0
 6-311+G(2d,p)
 ****
 1  2  3  4  5  17  18  19  20  21  22  23  24  25 0
 3-21G
 ****
 27  28  29  34  36  39  40  41  42  43  44  45  46 0
 3-21G
 ****


