%nproc=1
%NoSave
%Mem=1900MB
#P OB98/GEN NMR

erre ene a

0 1
  C        9.238    -139.556    -348.406
  O       10.618    -139.487    -348.771
  P       11.834    -139.954    -347.849
  C       11.581    -142.543    -347.479
  O       12.184    -141.473    -348.194
  C       11.866    -143.895    -348.159
  O       11.210    -143.909    -349.464
  C       13.364    -144.125    -348.409
  O       13.793    -145.454    -348.125
  C       13.556    -143.623    -349.830
  O       14.732    -144.115    -350.447
  C       12.233    -144.013    -350.485
  N       10.607    -143.876    -355.325
  C       10.963    -144.965    -354.552
  N       10.890    -146.178    -355.142
  N       11.367    -144.872    -353.315
  C       11.463    -143.597    -352.868
  C       11.162    -142.438    -353.547
  C       10.668    -142.557    -354.899
  O       10.321    -141.622    -355.626
  N       11.381    -141.330    -352.764
  C       11.840    -141.819    -351.625
  N       11.900    -143.192    -351.639
  O       11.731    -139.596    -346.404
  O       13.098    -139.149    -348.457
  H       14.742    -143.803    -351.374
  H       13.698    -138.967    -347.702
  H       10.282    -144.010    -356.270
  H       12.125    -141.225    -350.761
  H       12.240    -145.043    -350.844
  H       13.654    -142.528    -349.781
  H       10.705    -146.312    -356.124
  H       13.970    -143.514    -347.723
  H       11.356    -146.941    -354.649
  H       11.431    -144.695    -347.549
  H       10.506    -142.344    -347.489
  H       11.906    -142.549    -346.439
  P       14.582    -146.001    -346.844
  C       12.555    -147.212    -345.835
  O       13.869    -147.345    -346.341
  O       14.244    -144.961    -345.675
  O       16.059    -146.111    -347.028
  H       15.067    -144.534    -345.368
  H       12.292    -148.124    -345.289
  H       11.853    -147.077    -346.659
  H       12.491    -146.359    -345.150
  H        8.638    -139.179    -349.207
  H        9.071    -138.968    -347.528
  H        8.972    -140.573    -348.209

 3  4  5  6  7  8  9  10  11  12  23  26  30  31 0
 6-311+G(2d,p)
 ****
 33  35  36  37  38 0
 6-311+G(2d,p)
 ****
 1  2  13  14  15  16  17  18  19  20  21  22  24  25 0
 3-21G
 ****
 27  28  29  32  34  39  40  41  42  43  44  45  46  47  48  49 0
 3-21G
 ****


