%nproc=1
%NoSave
%Mem=1900MB
#P OB98/GEN NMR

erre ene a

0 1
  C       58.632    -107.045     139.981
  O       58.336    -108.310     139.419
  P       59.101    -109.626     139.920
  C       61.048    -108.824     138.420
  O       60.665    -109.315     139.709
  C       62.391    -109.416     137.995
  O       63.447    -108.948     138.859
  C       62.448    -110.937     138.056
  O       61.777    -111.508     136.952
  C       63.958    -111.171     138.073
  O       64.504    -111.127     136.746
  C       64.459    -109.978     138.910
  N       64.781    -110.355     140.285
  C       66.002    -111.018     140.467
  O       66.721    -111.277     139.498
  N       66.351    -111.409     141.741
  C       65.547    -111.183     142.724
  N       65.944    -111.605     143.958
  C       64.238    -110.515     142.570
  C       63.920    -110.133     141.336
  O       58.618    -110.908     139.331
  O       58.941    -109.554     141.514
  H       64.469    -110.187     136.471
  H       58.019    -109.788     141.796
  H       63.595    -110.358     143.426
  H       62.981    -109.635     141.129
  H       65.364    -109.544     138.458
  H       64.219    -112.149     138.494
  H       62.015    -111.288     139.002
  H       62.606    -109.068     136.976
  H       66.835    -112.084     144.014
  H       61.134    -107.737     138.477
  H       65.378    -111.513     144.792
  H       60.267    -109.071     137.697
  P       61.133    -112.968     137.074
  C       63.033    -114.259     135.929
  O       62.341    -114.027     137.135
  O       60.057    -113.281     136.086
  O       60.552    -112.996     138.571
  H       59.661    -113.395     138.557
  H       64.005    -114.719     136.163
  H       63.203    -113.327     135.387
  H       62.460    -114.947     135.305
  H       58.022    -106.298     139.519
  H       59.664    -106.814     139.817
  H       58.434    -107.067     141.032

 3  4  5  6  7  8  9  10  11  12  13  23  27  28  29  30  32 0
 6-311+G(2d,p)
 ****
 34  35 0
 6-311+G(2d,p)
 ****
 1  2  14  15  16  17  18  19  20  21  22  24  25  26 0
 3-21G
 ****
 31  33  36  37  38  39  40  41  42  43  44  45  46 0
 3-21G
 ****


