%nproc=1
%NoSave
%Mem=1900MB
#P OB98/GEN NMR

erre ene a

0 1
  C      104.180    -194.135    -154.286
  O      103.742    -193.933    -152.957
  H      103.418    -194.671    -154.857
  H      104.350    -193.162    -154.752
  H      105.118    -194.699    -154.294
  P      103.464    -195.251    -152.085
  C      105.892    -195.295    -151.171
  O      104.886    -195.975    -151.905
  C      107.088    -196.214    -150.944
  O      108.106    -195.529    -150.186
  C      106.777    -197.486    -150.161
  O      106.185    -198.480    -150.985
  C      108.173    -197.891    -149.715
  O      108.864    -198.537    -150.801
  C      108.819    -196.530    -149.414
  N      110.767    -197.450    -144.772
  C      111.085    -197.929    -145.996
  N      110.536    -197.620    -147.187
  C      109.569    -196.699    -147.036
  C      109.148    -196.103    -145.862
  C      109.789    -196.514    -144.683
  N      109.409    -196.066    -143.428
  N      108.120    -195.211    -146.106
  C      107.912    -195.289    -147.404
  N      108.768    -196.168    -148.012
  O      102.680    -196.199    -153.114
  O      102.685    -195.031    -150.832
  H      108.821    -197.926    -151.560
  H      101.721    -196.117    -152.956
  H      111.885    -198.662    -146.019
  H      107.156    -194.731    -147.943
  H      109.868    -196.492    -149.727
  H      108.167    -198.590    -148.872
  H      106.165    -197.273    -149.279
  H      107.518    -196.457    -151.926
  H      105.488    -194.982    -150.202
  H      109.584    -196.737    -142.685
  H      108.516    -195.588    -143.408
  H      106.196    -194.407    -151.734
  P      105.514    -199.746    -150.260
  C      103.243    -198.695    -150.918
  O      104.009    -199.315    -149.894
  O      106.258    -199.779    -148.843
  O      105.662    -201.041    -150.979
  H      106.674    -200.652    -148.709
  H      102.268    -198.462    -150.543
  H      103.155    -199.362    -151.750
  H      103.729    -197.795    -151.232

 6  7  8  9  10  11  12  13  14  15  25  28  32  33  34  35 0
 6-311+G(2d,p)
 ****
 36  39  40 0
 6-311+G(2d,p)
 ****
 1  2  3  4  5  16  17  18  19  20  21  22  23  24 0
 3-21G
 ****
 26  27  29  30  31  37  38  41  42  43  44  45  46  47  48 0
 3-21G
 ****


