%nproc=1
%NoSave
%Mem=1900MB
#P OB98/GEN NMR

erre ene a

0 1
  C      -77.280     101.261     -34.260
  O      -77.606     101.513     -32.895
  P      -76.412     101.707     -31.846
  C      -78.007     103.261     -30.417
  O      -76.982     102.294     -30.476
  C      -78.796     103.085     -29.109
  O      -79.335     101.748     -29.025
  C      -77.947     103.304     -27.859
  O      -77.891     104.669     -27.486
  C      -78.653     102.427     -26.844
  O      -79.841     103.080     -26.358
  C      -79.027     101.201     -27.711
  N      -78.022     100.127     -27.871
  C      -77.899      99.144     -26.893
  O      -78.580      99.094     -25.872
  N      -76.955      98.178     -27.128
  C      -76.257      97.996     -28.285
  O      -75.468      97.077     -28.461
  C      -76.532      98.974     -29.343
  C      -77.372      99.981     -29.090
  O      -75.563     102.915     -32.456
  O      -75.573     100.485     -31.634
  H      -79.555     103.863     -25.857
  H      -74.672     102.611     -32.711
  H      -76.803      97.497     -26.398
  H      -76.036      98.842     -30.295
  H      -77.582     100.712     -29.867
  H      -79.939     100.725     -27.333
  H      -78.028     102.250     -25.973
  H      -76.942     102.900     -28.010
  H      -79.637     103.790     -29.115
  H      -78.680     103.169     -31.273
  H      -77.570     104.264     -30.463
  P      -76.473     105.388     -27.301
  C      -77.072     107.461     -28.686
  O      -76.771     106.962     -27.398
  O      -75.366     104.886     -28.166
  O      -76.154     105.191     -25.741
  H      -75.574     104.409     -25.601
  H      -77.407     108.499     -28.591
  H      -77.868     106.872     -29.149
  H      -76.177     107.435     -29.314
  H      -78.181     101.156     -34.828
  H      -76.707     100.360     -34.329
  H      -76.708     102.078     -34.647

 3  4  5  6  7  8  9  10  11  12  13  23  28  29  30  31  32 0
 6-311+G(2d,p)
 ****
 33  34 0
 6-311+G(2d,p)
 ****
 1  2  14  15  16  17  18  19  20  21  22  24  25  26  27 0
 3-21G
 ****
 35  36  37  38  39  40  41  42  43  44  45 0
 3-21G
 ****


