%nproc=1
%NoSave
%Mem=1900MB
#P OB98/GEN NMR

erre ene a

0 1
  C     -419.508    -144.443    -316.724
  O     -419.482    -143.585    -315.591
  P     -420.881    -142.954    -315.108
  C     -421.118    -140.411    -315.570
  O     -421.169    -141.733    -316.102
  C     -419.735    -139.804    -315.783
  O     -419.269    -140.114    -317.113
  C     -419.689    -138.285    -315.685
  O     -419.635    -137.846    -314.331
  C     -418.390    -137.984    -316.413
  O     -417.277    -138.172    -315.520
  C     -418.377    -139.049    -317.521
  N     -417.356    -135.847    -321.317
  C     -416.656    -136.094    -320.148
  N     -415.506    -135.405    -319.983
  N     -417.051    -136.932    -319.228
  C     -418.199    -137.579    -319.548
  C     -418.985    -137.421    -320.671
  C     -418.567    -136.448    -321.655
  O     -419.176    -136.143    -322.675
  N     -420.067    -138.263    -320.643
  C     -419.918    -138.952    -319.528
  N     -418.814    -138.554    -318.814
  O     -420.492    -142.228    -313.735
  O     -421.989    -143.937    -314.928
  H     -417.352    -137.497    -314.824
  H     -421.281    -142.161    -313.159
  H     -417.003    -135.202    -321.996
  H     -420.578    -139.747    -319.203
  H     -417.380    -139.489    -317.635
  H     -418.336    -136.947    -316.776
  H     -415.087    -134.847    -320.716
  H     -420.529    -137.828    -316.226
  H     -414.960    -135.600    -319.155
  H     -419.039    -140.262    -315.067
  H     -421.325    -140.450    -314.495
  H     -421.885    -139.803    -316.050
  P     -420.417    -136.483    -313.990
  C     -418.857    -134.497    -313.399
  O     -419.421    -135.307    -314.414
  O     -420.406    -136.453    -312.388
  O     -421.803    -136.418    -314.545
  H     -421.161    -135.934    -312.056
  H     -418.634    -135.072    -312.499
  H     -419.548    -133.686    -313.152
  H     -417.929    -134.063    -313.771
  H     -418.517    -144.788    -316.933
  H     -419.884    -143.906    -317.570
  H     -420.143    -145.281    -316.523

 3  4  5  6  7  8  9  10  11  12  23  26  30  31  33  0
 6-311+G(2d,p)
 ****
 35  36  37  38 0
 6-311+G(2d,p)
 ****
 1  2  13  14  15  16  17  18  19  20  21  22  24  25  27  28  29 0
 3-21G
 ****
 32  34  39  40  41  42  43  44  45  46  47  48  49 0
 3-21G
 ****


