%nproc=1
%NoSave
%Mem=1900MB
#P OB98/GEN NMR

erre ene a

0 1
  C     -516.873    -239.122      -6.314
  O     -517.606    -240.129      -5.628
  P     -517.070    -240.573      -4.174
  C     -515.828    -242.833      -3.914
  O     -515.805    -241.512      -4.447
  C     -516.032    -243.856      -5.028
  O     -514.927    -243.791      -5.956
  C     -516.076    -245.303      -4.559
  O     -517.365    -245.654      -4.051
  C     -515.777    -246.042      -5.853
  O     -516.983    -246.158      -6.636
  C     -514.774    -245.104      -6.541
  N     -510.587    -246.618      -8.977
  C     -511.828    -246.251      -9.475
  N     -511.960    -246.273     -10.823
  N     -512.841    -245.910      -8.728
  C     -512.554    -245.895      -7.402
  C     -511.368    -246.240      -6.782
  C     -510.269    -246.669      -7.617
  O     -509.176    -247.063      -7.227
  N     -511.456    -246.090      -5.423
  C     -512.676    -245.628      -5.223
  N     -513.392    -245.521      -6.393
  O     -518.195    -241.595      -3.677
  O     -516.866    -239.450      -3.208
  H     -517.646    -246.594      -6.076
  H     -518.208    -241.618      -2.694
  H     -509.843    -246.859      -9.593
  H     -513.082    -245.350      -4.253
  H     -514.992    -245.007      -7.610
  H     -515.413    -247.065      -5.681
  H     -511.176    -246.400     -11.449
  H     -515.287    -245.509      -3.828
  H     -512.844    -245.975     -11.208
  H     -516.951    -243.596      -5.578
  H     -516.658    -242.919      -3.204
  H     -514.895    -243.023      -3.383
  P     -517.473    -247.067      -3.296
  C     -518.201    -249.117      -4.715
  O     -517.193    -248.171      -4.423
  O     -519.044    -247.195      -3.002
  O     -516.656    -247.164      -2.051
  H     -519.199    -247.775      -2.229
  H     -519.199    -248.679      -4.652
  H     -518.126    -249.959      -4.019
  H     -518.048    -249.485      -5.729
  H     -517.335    -238.926      -7.259
  H     -515.869    -239.456      -6.471
  H     -516.864    -238.226      -5.729

 3  4  5  6  7  8  9  10  11  12  23  26  30  31  33  0
 6-311+G(2d,p)
 ****
 35  36  37  38 0
 6-311+G(2d,p)
 ****
 1  2  13  14  15  16  17  18  19  20  21  22  24  25  27  28  29 0
 3-21G
 ****
 32  34  39  40  41  42  43  44  45  46  47  48  49 0
 3-21G
 ****


