%nproc=1
%NoSave
%Mem=1900MB
#P OB98/GEN NMR

erre ene a

0 1
  C     -205.322    -238.873    -256.991
  O     -205.595    -239.463    -258.270
  P     -205.615    -241.059    -258.375
  C     -204.242    -241.253    -260.576
  O     -205.486    -241.459    -259.922
  C     -204.469    -240.728    -261.996
  O     -204.920    -239.354    -261.993
  C     -203.219    -240.754    -262.867
  O     -203.001    -242.039    -263.435
  C     -203.601    -239.763    -263.955
  O     -204.452    -240.405    -264.925
  C     -204.382    -238.702    -263.171
  N     -202.438    -234.276    -264.660
  C     -203.251    -235.163    -265.338
  N     -203.606    -234.815    -266.592
  N     -203.677    -236.290    -264.827
  C     -203.261    -236.497    -263.558
  C     -202.452    -235.695    -262.784
  C     -201.972    -234.460    -263.363
  O     -201.236    -233.644    -262.817
  N     -202.239    -236.246    -261.548
  C     -202.933    -237.369    -261.564
  N     -203.557    -237.573    -262.769
  O     -207.142    -241.417    -258.046
  O     -204.673    -241.749    -257.444
  H     -204.702    -239.721    -265.575
  H     -207.196    -242.310    -257.655
  H     -202.130    -233.427    -265.102
  H     -203.014    -238.060    -260.734
  H     -205.227    -238.299    -263.742
  H     -202.729    -239.390    -264.501
  H     -203.353    -233.941    -267.027
  H     -202.344    -240.391    -262.313
  H     -204.231    -235.437    -267.092
  H     -205.248    -241.347    -262.468
  H     -203.670    -242.184    -260.611
  H     -203.640    -240.559    -259.983
  P     -201.507    -242.417    -263.879
  C     -202.020    -242.703    -266.408
  O     -201.649    -243.319    -265.191
  O     -201.049    -243.448    -262.744
  O     -200.574    -241.256    -263.982
  H     -200.088    -243.375    -262.595
  H     -201.911    -243.430    -267.216
  H     -201.379    -241.842    -266.618
  H     -203.064    -242.381    -266.362
  H     -205.342    -237.807    -257.078
  H     -204.356    -239.185    -256.653
  H     -206.064    -239.187    -256.287

 3  4  5  6  7  8  9  10  11  12  23  26  30  31 0
 6-311+G(2d,p)
 ****
 33  35  36  37  38 0
 6-311+G(2d,p)
 ****
 1  2  13  14  15  16  17  18  19  20  21  22  24  25 0
 3-21G
 ****
 27  28  29  32  34  39  40  41  42  43  44  45  46  47  48  49 0
 3-21G
 ****


