%nproc=1
%NoSave
%Mem=1900MB
#P OB98/GEN NMR

erre ene a

0 1
  C       41.305    -142.768    -393.417
  O       40.192    -142.216    -392.744
  H       41.105    -142.759    -394.491
  H       41.460    -143.803    -393.102
  H       42.207    -142.183    -393.225
  P       40.306    -141.927    -391.172
  C       40.556    -139.367    -391.372
  O       41.180    -140.593    -391.009
  C       40.620    -138.387    -390.204
  O       39.848    -138.887    -389.091
  C       42.025    -138.158    -389.662
  O       42.767    -137.310    -390.519
  C       41.708    -137.568    -388.296
  O       41.380    -136.174    -388.404
  C       40.469    -138.396    -387.882
  N       40.790    -139.498    -386.975
  C       40.555    -139.276    -385.623
  O       40.138    -138.207    -385.182
  N       40.835    -140.325    -384.786
  C       41.392    -141.515    -385.158
  O       41.674    -142.404    -384.359
  C       41.653    -141.680    -386.593
  C       41.343    -140.683    -387.423
  O       40.750    -143.076    -390.330
  O       38.833    -141.440    -390.774
  H       40.890    -135.939    -387.593
  H       38.345    -142.173    -390.357
  H       40.682    -140.176    -383.802
  H       42.101    -142.610    -386.921
  H       41.532    -140.785    -388.487
  H       39.729    -137.753    -387.388
  H       42.546    -137.639    -387.601
  H       42.540    -139.116    -389.519
  H       40.168    -137.440    -390.527
  H       39.509    -139.569    -391.624
  H       41.063    -138.958    -392.250
  P       44.353    -137.180    -390.368
  C       45.102    -139.098    -391.892
  O       44.981    -138.649    -390.548
  O       44.819    -136.449    -389.152
  O       44.809    -136.427    -391.704
  H       45.043    -135.501    -391.499
  H       45.528    -140.080    -391.903
  H       45.735    -138.429    -392.436
  H       44.134    -139.124    -392.348

 6  7  8  9  10  11  12  13  14  15  16  26  31  32  33  34  35 0
 6-311+G(2d,p)
 ****
 36  37 0
 6-311+G(2d,p)
 ****
 1  2  3  4  5  17  18  19  20  21  22  23  24  25 0
 3-21G
 ****
 27  28  29  30  38  39  40  41  42  43  44  45 0
 3-21G
 ****


