%nproc=1
%NoSave
%Mem=1900MB
#P OB98/GEN NMR

erre ene a

0 1
  C      -24.791      76.798    -618.052
  O      -25.837      77.721    -617.860
  H      -25.178      75.935    -618.603
  H      -24.409      76.450    -617.082
  H      -23.977      77.236    -618.634
  P      -25.493      79.167    -617.256
  C      -25.267      80.145    -614.880
  O      -25.793      79.100    -615.683
  C      -25.523      79.864    -613.399
  O      -26.922      80.086    -613.080
  C      -25.240      78.420    -612.990
  O      -23.847      78.191    -612.871
  C      -26.022      78.338    -611.679
  O      -25.271      78.931    -610.605
  C      -27.268      79.182    -612.013
  N      -28.439      78.361    -612.387
  C      -29.448      78.272    -611.423
  O      -29.387      78.806    -610.327
  N      -30.552      77.531    -611.803
  C      -30.680      76.817    -612.960
  O      -31.662      76.128    -613.226
  C      -29.554      76.926    -613.902
  C      -28.504      77.676    -613.580
  O      -26.105      80.334    -617.963
  O      -23.890      79.232    -617.315
  H      -25.821      78.848    -609.808
  H      -23.603      79.752    -618.089
  H      -31.291      77.442    -611.126
  H      -29.622      76.366    -614.836
  H      -27.668      77.757    -614.268
  H      -27.557      79.796    -611.161
  H      -26.233      77.307    -611.380
  H      -25.690      77.723    -613.710
  H      -24.926      80.556    -612.801
  H      -25.765      81.089    -615.149
  H      -24.189      80.247    -615.072
  P      -23.285      76.789    -612.335
  C      -22.410      75.961    -610.083
  O      -23.314      76.835    -610.732
  O      -21.971      76.362    -612.931
  O      -24.448      75.740    -612.705
  H      -24.186      75.188    -613.456
  H      -22.509      76.069    -609.023
  H      -21.409      76.202    -610.375
  H      -22.629      74.951    -610.361

 6  7  8  9  10  11  12  13  14  15  16  26  31  32  33  34  35 0
 6-311+G(2d,p)
 ****
 36  37 0
 6-311+G(2d,p)
 ****
 1  2  3  4  5  17  18  19  20  21  22  23  24  25 0
 3-21G
 ****
 27  28  29  30  38  39  40  41  42  43  44  45 0
 3-21G
 ****


