%nproc=1
%NoSave
%Mem=1900MB
#P OB98/GEN NMR

erre ene a

0 1
  C     1038.619     455.907    1192.129
  O     1039.421     455.596    1190.998
  H     1037.798     456.553    1191.806
  H     1039.213     456.418    1192.883
  H     1038.199     454.984    1192.548
  P     1040.699     454.663    1191.262
  C     1042.350     456.610    1190.779
  O     1041.908     455.313    1190.414
  C     1043.790     456.822    1190.335
  O     1044.696     455.991    1191.089
  C     1044.043     456.533    1188.851
  O     1043.680     457.643    1188.038
  C     1045.551     456.272    1188.857
  O     1046.304     457.512    1188.850
  C     1045.743     455.528    1190.188
  N     1048.469     451.271    1190.299
  C     1048.850     452.574    1190.530
  N     1050.161     452.794    1190.778
  N     1048.016     453.589    1190.511
  C     1046.749     453.240    1190.218
  C     1046.242     451.971    1190.003
  C     1047.174     450.850    1190.043
  O     1046.887     449.665    1189.920
  N     1044.898     452.016    1189.765
  C     1044.589     453.282    1189.807
  N     1045.683     454.074    1190.064
  O     1040.357     453.317    1190.447
  O     1040.993     454.371    1192.691
  H     1046.114     457.986    1188.017
  H     1040.774     452.562    1190.895
  H     1049.154     450.537    1190.354
  H     1043.598     453.689    1189.646
  H     1046.700     455.760    1190.663
  H     1045.862     455.707    1187.974
  H     1050.872     452.148    1190.477
  H     1043.512     455.616    1188.540
  H     1050.451     453.760    1190.915
  H     1044.046     457.876    1190.561
  H     1042.288     456.721    1191.863
  H     1041.688     457.358    1190.315
  P     1042.201     457.656    1187.417
  C     1042.970     456.513    1185.192
  O     1042.375     457.665    1185.823
  O     1041.659     459.128    1187.735
  O     1041.289     456.601    1187.962
  H     1040.706     459.161    1187.659
  H     1043.017     456.670    1184.135
  H     1042.376     455.647    1185.398
  H     1043.958     456.367    1185.575

 6  7  8  9  10  11  12  13  14  15  26  29  33  34 0
 6-311+G(2d,p)
 ****
 36  38  39  40  41 0
 6-311+G(2d,p)
 ****
 1  2  3  4  5  16  17  18  19  20  21  22  23  24  25 0
 3-21G
 ****
 27  28  30  31  32  35  37  42  43  44  45  46  47 0
 3-21G
 ****
 48  49 0
 3-21G
 ****


