%nproc=1
%NoSave
%Mem=1900MB
#P OB98/GEN NMR

erre ene a

0 1
  C      332.476    -393.021     168.257
  O      331.854    -394.285     168.162
  H      332.522    -392.578     167.259
  H      333.495    -393.128     168.637
  H      331.902    -392.354     168.909
  P      331.521    -395.085     169.510
  C      329.163    -394.119     169.918
  O      329.930    -395.266     169.566
  C      328.028    -393.930     168.914
  O      328.559    -393.570     167.619
  C      327.191    -395.182     168.690
  O      326.301    -395.406     169.761
  C      326.524    -394.842     167.363
  O      325.388    -393.986     167.568
  C      327.654    -394.099     166.623
  N      328.361    -394.945     165.663
  C      327.704    -395.201     164.462
  O      326.579    -394.781     164.202
  N      328.383    -395.991     163.569
  C      329.568    -396.625     163.800
  O      330.091    -397.397     163.001
  C      330.204    -396.339     165.095
  C      329.580    -395.525     165.953
  O      332.142    -394.544     170.755
  O      332.037    -396.572     169.202
  H      325.214    -393.554     166.710
  H      332.875    -396.728     169.679
  H      327.917    -396.195     162.699
  H      331.152    -396.813     165.310
  H      330.029    -395.308     166.914
  H      327.248    -393.232     166.083
  H      326.167    -395.732     166.840
  H      327.846    -396.050     168.540
  H      327.395    -393.098     169.263
  H      329.816    -393.241     169.899
  H      328.769    -394.253     170.931
  P      325.774    -396.885     170.064
  C      327.681    -397.358     171.725
  O      326.266    -397.292     171.535
  O      326.054    -397.896     169.001
  O      324.195    -396.694     170.258
  H      323.716    -397.220     169.588
  H      327.892    -397.637     172.736
  H      328.113    -396.401     171.521
  H      328.097    -398.086     171.060

 6  7  8  9  10  11  12  13  14  15  16  26  31  32  33  34  35 0
 6-311+G(2d,p)
 ****
 36  37 0
 6-311+G(2d,p)
 ****
 1  2  3  4  5  17  18  19  20  21  22  23  24  25 0
 3-21G
 ****
 27  28  29  30  38  39  40  41  42  43  44  45 0
 3-21G
 ****


