%nproc=1
%NoSave
%Mem=1900MB
#P OB98/GEN NMR

erre ene a

0 1
  C      117.232     -63.162     156.102
  O      116.772     -64.486     155.922
  H      116.400     -62.549     156.461
  H      117.591     -62.752     155.154
  H      118.033     -63.139     156.847
  P      117.839     -65.548     155.364
  C      117.138     -67.376     157.056
  O      117.191     -66.978     155.693
  C      117.014     -68.897     157.166
  O      115.708     -69.322     156.741
  C      118.014     -69.669     156.311
  O      119.258     -69.782     156.980
  C      117.316     -71.018     156.203
  O      117.563     -71.785     157.398
  C      115.832     -70.628     156.126
  N      111.907     -72.024     153.119
  C      112.251     -72.393     154.372
  N      113.336     -72.025     155.089
  C      114.107     -71.176     154.389
  C      113.883     -70.717     153.098
  C      112.720     -71.172     152.459
  N      112.373     -70.797     151.174
  N      114.893     -69.862     152.701
  C      115.678     -69.764     153.756
  N      115.264     -70.569     154.789
  O      119.248     -65.345     155.810
  O      117.601     -65.416     153.783
  H      118.495     -72.061     157.367
  H      116.650     -65.336     153.587
  H      111.565     -73.077     154.866
  H      116.541     -69.111     153.832
  H      115.203     -71.319     156.697
  H      117.682     -71.614     155.364
  H      118.115     -69.236     155.307
  H      117.120     -69.166     158.225
  H      116.288     -66.901     157.558
  H      111.636     -71.316     150.727
  H      113.048     -70.263     150.640
  H      118.061     -67.035     157.538
  P      120.642     -69.682     156.176
  C      122.050     -69.472     158.318
  O      121.748     -70.272     157.180
  O      120.934     -68.342     155.602
  O      120.536     -70.827     155.062
  H      121.197     -70.678     154.359
  H      122.794     -69.961     158.911
  H      121.164     -69.333     158.902
  H      122.419     -68.520     157.997

 6  7  8  9  10  11  12  13  14  15  25  28  32  33  34  35 0
 6-311+G(2d,p)
 ****
 36  39  40 0
 6-311+G(2d,p)
 ****
 1  2  3  4  5  16  17  18  19  20  21  22  23  24 0
 3-21G
 ****
 26  27  29  30  31  37  38  41  42  43  44  45  46  47 0
 3-21G
 ****
 48 0
 3-21G
 ****


