%nproc=1
%NoSave
%Mem=1900MB
#P OB98/GEN NMR

erre ene a

0 1
  C     1236.935     403.099     799.209
  O     1236.357     403.811     800.285
  H     1237.790     403.669     798.831
  H     1236.199     402.992     798.410
  H     1237.287     402.117     799.529
  P     1235.404     403.027     801.308
  C     1237.211     402.936     803.142
  O     1236.339     402.190     802.310
  C     1236.623     403.160     804.544
  O     1236.525     401.887     805.229
  C     1237.500     404.068     805.403
  O     1237.242     405.451     805.255
  C     1237.137     403.601     806.816
  O     1235.996     404.307     807.339
  C     1236.797     402.120     806.618
  N     1240.126     400.896     810.322
  C     1239.314     402.011     810.224
  N     1239.431     402.930     811.208
  N     1238.474     402.203     809.231
  C     1238.536     401.255     808.266
  C     1239.318     400.113     808.258
  C     1240.171     399.871     809.388
  O     1240.903     398.886     809.541
  N     1239.149     399.403     807.079
  C     1238.341     400.147     806.371
  N     1237.885     401.241     807.064
  O     1234.757     401.873     800.392
  O     1234.333     403.851     801.956
  H     1235.224     404.085     806.779
  H     1233.856     401.663     800.724
  H     1240.714     400.778     811.115
  H     1238.005     399.937     805.354
  H     1235.903     401.822     807.176
  H     1237.962     403.784     807.506
  H     1240.109     402.867     811.945
  H     1238.561     403.866     805.239
  H     1239.003     403.843     811.065
  H     1235.605     403.554     804.446
  H     1237.378     403.901     802.652
  H     1238.193     402.434     803.213
  P     1238.354     406.544     805.557
  C     1238.818     407.087     803.018
  O     1239.302     406.660     804.278
  O     1239.294     405.809     806.626
  O     1237.869     407.869     806.038
  H     1239.071     406.110     807.526
  H     1239.620     407.090     802.310
  H     1238.417     408.075     803.106
  H     1238.051     406.419     802.685

 6  7  8  9  10  11  12  13  14  15  26  29  33  34 0
 6-311+G(2d,p)
 ****
 36  38  39  40  41 0
 6-311+G(2d,p)
 ****
 1  2  3  4  5  16  17  18  19  20  21  22  23  24  25 0
 3-21G
 ****
 27  28  30  31  32  35  37  42  43  44  45  46  47 0
 3-21G
 ****
 48  49 0
 3-21G
 ****


