%nproc=1
%NoSave
%Mem=1900MB
#P OB98/GEN NMR

erre ene a

0 1
  C       -0.861     497.294     367.091
  O       -1.875     496.366     367.429
  H       -1.249     498.020     366.370
  H       -0.562     497.833     367.998
  H        0.007     496.782     366.674
  P       -2.261     495.265     366.323
  C       -4.257     496.760     365.590
  O       -3.106     496.035     365.185
  C       -5.177     497.006     364.390
  O       -4.612     498.069     363.584
  C       -5.379     495.774     363.489
  O       -6.746     495.746     363.051
  C       -4.482     496.068     362.297
  O       -4.914     495.395     361.111
  C       -4.583     497.578     362.217
  N       -3.345     500.583     358.309
  C       -4.500     500.421     358.984
  N       -4.728     499.635     360.053
  C       -3.588     499.031     360.465
  C       -2.331     499.111     359.876
  C       -2.233     499.918     358.732
  N       -1.082     500.048     358.002
  N       -1.441     498.295     360.555
  C       -2.139     497.730     361.511
  N       -3.456     498.142     361.489
  O       -3.372     494.393     367.083
  O       -1.131     494.426     365.830
  H       -5.808     495.734     360.879
  H       -2.940     493.684     367.588
  H       -5.356     500.974     358.610
  H       -1.782     496.998     362.209
  H       -5.499     497.930     361.713
  H       -3.455     495.754     362.523
  H       -5.126     494.820     363.974
  H       -6.142     497.369     364.771
  H       -3.939     497.733     366.004
  H       -1.128     500.563     357.126
  H       -0.283     499.474     358.234
  H       -4.783     496.203     366.373
  P       -7.802     494.972     363.980
  C       -7.972     492.701     362.714
  O       -7.524     493.391     363.865
  O       -9.180     495.163     363.183
  O       -7.886     495.505     365.375
  H       -9.928     495.214     363.818
  H       -7.710     491.667     362.794
  H       -7.510     493.120     361.845
  H       -9.035     492.795     362.633

 6  7  8  9  10  11  12  13  14  15  25  28  32  33  34  35 0
 6-311+G(2d,p)
 ****
 36  39  40 0
 6-311+G(2d,p)
 ****
 1  2  3  4  5  16  17  18  19  20  21  22  23  24 0
 3-21G
 ****
 26  27  29  30  31  37  38  41  42  43  44  45  46  47 0
 3-21G
 ****
 48 0
 3-21G
 ****


