%nproc=1
%NoSave
%Mem=1900MB
#P OB98/GEN NMR

erre ene a

0 1
  C      394.064     904.067      -4.462
  O      393.934     904.556      -3.145
  H      394.124     902.976      -4.430
  H      394.974     904.456      -4.930
  H      393.186     904.354      -5.060
  P      393.861     906.152      -2.973
  C      391.307     906.357      -2.710
  O      392.572     906.395      -2.052
  C      390.273     907.175      -1.929
  O      389.044     907.208      -2.696
  C      389.946     906.587      -0.563
  O      389.762     907.654       0.384
  C      388.628     905.861      -0.774
  O      387.869     905.747       0.423
  C      387.978     906.742      -1.855
  N      383.173     905.012      -1.934
  C      383.819     905.836      -1.088
  N      385.105     906.256      -1.149
  C      385.714     905.771      -2.248
  C      385.190     904.914      -3.196
  C      383.843     904.512      -3.004
  N      383.190     903.650      -3.836
  N      386.138     904.600      -4.150
  C      387.215     905.273      -3.787
  N      387.008     905.983      -2.631
  O      393.909     906.940      -4.244
  O      395.068     906.423      -1.956
  H      387.807     906.640       0.832
  H      395.078     905.774      -1.228
  H      383.237     906.206      -0.250
  H      388.165     905.264      -4.315
  H      387.453     907.599      -1.429
  H      388.819     904.855      -1.159
  H      390.725     905.906      -0.188
  H      390.626     908.210      -1.859
  H      390.961     905.322      -2.804
  H      382.226     903.432      -3.640
  H      383.665     903.287      -4.656
  H      391.444     906.772      -3.718
  P      391.046     908.224       1.154
  C      392.838     909.303      -0.367
  O      391.616     909.488       0.338
  O      392.071     907.221       1.561
  O      390.386     908.930       2.435
  H      390.971     908.786       3.214
  H      393.105     910.213      -0.863
  H      392.718     908.524      -1.090
  H      393.610     909.034       0.323

 6  7  8  9  10  11  12  13  14  15  25  28  32  33  34  35 0
 6-311+G(2d,p)
 ****
 36  39  40 0
 6-311+G(2d,p)
 ****
 1  2  3  4  5  16  17  18  19  20  21  22  23  24 0
 3-21G
 ****
 26  27  29  30  31  37  38  41  42  43  44  45  46  47 0
 3-21G
 ****
 48 0
 3-21G
 ****


