%nproc=1
%NoSave
%Mem=1900MB
#P OB98/GEN NMR

erre ene a

0 1
  C     -248.513     441.057    -524.303
  O     -247.375     441.707    -523.727
  P     -247.012     441.319    -522.208
  C     -244.485     441.672    -522.714
  O     -245.588     441.976    -521.871
  C     -243.583     442.892    -522.890
  O     -244.221     443.896    -523.701
  C     -243.231     443.601    -521.587
  O     -242.191     442.933    -520.890
  C     -242.759     444.951    -522.104
  O     -241.386     444.862    -522.519
  C     -243.672     445.180    -523.320
  N     -246.654     448.805    -525.227
  C     -245.619     448.110    -525.817
  N     -245.365     448.402    -527.114
  N     -244.909     447.206    -525.201
  C     -245.296     446.996    -523.919
  C     -246.303     447.626    -523.222
  C     -247.069     448.641    -523.910
  O     -247.975     449.313    -523.423
  N     -246.410     447.135    -521.947
  C     -245.487     446.197    -521.877
  N     -244.777     446.084    -523.047
  O     -246.681     439.753    -522.307
  O     -248.106     441.599    -521.234
  H     -241.161     445.712    -522.955
  H     -246.859     439.320    -521.452
  H     -247.170     449.495    -525.749
  H     -245.297     445.575    -521.014
  H     -243.118     445.564    -524.182
  H     -242.810     445.737    -521.347
  H     -245.921     449.032    -527.671
  H     -244.124     443.734    -520.962
  H     -244.631     447.875    -527.571
  H     -242.665     442.569    -523.395
  H     -244.843     441.343    -523.693
  H     -243.931     440.833    -522.282
  P     -242.433     442.622    -519.335
  C     -240.696     440.724    -518.974
  O     -241.026     442.086    -518.788
  O     -243.360     441.316    -519.370
  O     -243.058     443.736    -518.569
  H     -243.922     441.282    -518.576
  H     -240.957     440.391    -519.984
  H     -241.226     440.111    -518.237
  H     -239.621     440.598    -518.833
  H     -248.648     441.398    -525.308
  H     -249.385     441.289    -523.728
  H     -248.357     439.998    -524.303

 3  4  5  6  7  8  9  10  11  12  23  26  30  31  33  0
 6-311+G(2d,p)
 ****
 35  36  37  38 0
 6-311+G(2d,p)
 ****
 1  2  13  14  15  16  17  18  19  20  21  22  24  25  27  28  29 0
 3-21G
 ****
 32  34  39  40  41  42  43  44  45  46  47  48  49 0
 3-21G
 ****


