%nproc=1
%NoSave
%Mem=1900MB
#P OB98/GEN NMR

erre ene a

0 1
  C      264.932     133.734    -174.857
  O      265.399     134.985    -175.322
  H      264.335     133.271    -175.647
  H      264.296     133.872    -173.978
  H      265.767     133.073    -174.616
  P      266.388     135.837    -174.389
  C      268.709     134.932    -175.025
  O      267.769     135.983    -175.196
  C      270.114     135.494    -174.813
  O      270.965     134.440    -174.297
  C      270.759     136.037    -176.093
  O      271.514     137.202    -175.760
  C      271.698     134.923    -176.512
  O      272.798     135.403    -177.286
  C      272.111     134.333    -175.165
  N      275.718     131.297    -176.980
  C      275.644     132.677    -176.952
  N      276.670     133.353    -177.512
  N      274.647     133.338    -176.423
  C      273.695     132.536    -175.884
  C      273.652     131.163    -175.849
  C      274.756     130.441    -176.451
  O      274.872     129.223    -176.519
  N      272.509     130.714    -175.240
  C      271.859     131.815    -174.910
  N      272.534     132.946    -175.289
  O      266.539     135.335    -172.990
  O      265.781     137.315    -174.429
  H      272.481     135.495    -178.209
  H      265.262     137.496    -173.624
  H      276.505     130.841    -177.407
  H      270.902     131.851    -174.405
  H      272.945     134.881    -174.707
  H      271.151     134.185    -177.114
  H      277.479     132.912    -177.924
  H      270.027     136.277    -176.871
  H      276.647     134.366    -177.483
  H      270.064     136.270    -174.038
  H      268.693     134.308    -175.926
  H      268.416     134.318    -174.165
  P      271.255     138.553    -176.586
  C      268.842     139.238    -175.987
  O      270.229     139.462    -175.750
  O      270.915     138.372    -178.029
  O      272.640     139.347    -176.410
  H      272.786     139.903    -177.201
  H      268.264     139.899    -175.376
  H      268.598     138.225    -175.746
  H      268.622     139.422    -177.018

 6  7  8  9  10  11  12  13  14  15  26  29  33  34 0
 6-311+G(2d,p)
 ****
 36  38  39  40  41 0
 6-311+G(2d,p)
 ****
 1  2  3  4  5  16  17  18  19  20  21  22  23  24  25 0
 3-21G
 ****
 27  28  30  31  32  35  37  42  43  44  45  46  47 0
 3-21G
 ****
 48  49 0
 3-21G
 ****


