%nproc=1
%NoSave
%Mem=1900MB
#P OB98/GEN NMR

erre ene a

0 1
  C      210.235      -0.812      51.280
  O      210.718      -0.084      50.172
  H      209.214      -0.485      51.497
  H      210.856      -0.617      52.158
  H      210.219      -1.884      51.066
  P      212.127      -0.497      49.530
  C      213.547       0.397      47.569
  O      212.546       0.684      48.533
  C      213.439       1.350      46.373
  O      212.188       1.078      45.671
  C      213.427       2.845      46.755
  O      214.018       3.562      45.661
  C      211.934       3.104      46.844
  O      211.624       4.472      46.918
  C      211.470       2.329      45.602
  N      210.035       2.094      45.511
  C      209.370       2.588      44.391
  O      209.908       3.203      43.472
  N      208.021       2.352      44.350
  C      207.294       1.676      45.287
  O      206.092       1.468      45.180
  C      208.050       1.187      46.447
  C      209.365       1.409      46.504
  O      212.197      -1.870      48.950
  O      213.159      -0.318      50.743
  H      213.372      -1.192      51.122
  H      212.041       4.937      46.161
  H      207.523       2.698      43.545
  H      207.503       0.656      47.216
  H      209.951       1.051      47.344
  H      211.809       2.843      44.696
  H      211.531       2.657      47.756
  H      213.980       3.058      47.674
  H      214.252       1.130      45.670
  H      213.408      -0.635      47.230
  H      214.532       0.489      48.035
  P      215.545       4.057      45.652
  C      216.876       4.832      43.573
  O      215.741       5.045      44.403
  O      216.542       2.945      45.700
  O      215.688       5.015      46.927
  H      216.614       5.018      47.230
  H      216.883       5.556      42.785
  H      216.831       3.849      43.153
  H      217.768       4.931      44.156

 6  7  8  9  10  11  12  13  14  15  16  27  31  32  33  34  35 0
 6-311+G(2d,p)
 ****
 36  37 0
 6-311+G(2d,p)
 ****
 1  2  3  4  5  17  18  19  20  21  22  23  24  25 0
 3-21G
 ****
 26  28  29  30  38  39  40  41  42  43  44  45 0
 3-21G
 ****


