%nproc=1
%NoSave
%Mem=1900MB
#P OB98/GEN NMR

erre ene a

0 1
  C       90.682      37.234     -51.673
  O       89.571      37.288     -52.544
  H       91.568      37.581     -52.213
  H       90.852      36.203     -51.351
  H       90.521      37.877     -50.803
  P       88.143      36.903     -51.924
  C       88.276      34.527     -52.960
  O       88.132      35.299     -51.775
  C       88.896      33.165     -52.643
  O       88.011      32.446     -51.731
  C       89.119      32.270     -53.874
  O       90.318      31.508     -53.659
  C       87.934      31.314     -53.814
  O       88.171      30.109     -54.540
  C       87.809      31.134     -52.302
  N       85.372      26.827     -51.374
  C       86.700      27.060     -51.681
  N       87.502      25.976     -51.755
  N       87.197      28.251     -51.899
  C       86.282      29.246     -51.760
  C       84.946      29.149     -51.466
  C       84.401      27.822     -51.254
  O       83.230      27.554     -50.996
  N       84.353      30.389     -51.444
  C       85.330      31.228     -51.725
  N       86.523      30.583     -51.921
  O       87.141      37.176     -53.141
  O       87.752      37.659     -50.696
  H       88.207      30.340     -55.493
  H       86.776      38.079     -53.083
  H       85.038      25.890     -51.228
  H       85.234      32.304     -51.799
  H       88.574      30.459     -51.896
  H       87.040      31.796     -54.231
  H       87.204      25.035     -51.550
  H       89.188      32.814     -54.821
  H       88.490      26.131     -51.937
  H       89.836      33.324     -52.098
  H       88.928      35.064     -53.658
  H       87.290      34.389     -53.423
  P       91.712      32.154     -54.118
  C       91.196      31.246     -56.500
  O       91.675      32.328     -55.711
  O       92.745      30.949     -53.910
  O       92.110      33.367     -53.341
  H       93.635      31.307     -53.733
  H       91.234      31.515     -57.535
  H       90.186      31.024     -56.226
  H       91.808      30.384     -56.333

 6  7  8  9  10  11  12  13  14  15  26  29  33  34 0
 6-311+G(2d,p)
 ****
 36  38  39  40  41 0
 6-311+G(2d,p)
 ****
 1  2  3  4  5  16  17  18  19  20  21  22  23  24  25 0
 3-21G
 ****
 27  28  30  31  32  35  37  42  43  44  45  46  47 0
 3-21G
 ****
 48  49 0
 3-21G
 ****


