%nproc=1
%NoSave
%Mem=1900MB
#P OB98/GEN NMR

erre ene a

0 1
  C      106.843    -118.238       0.107
  O      106.367    -118.930       1.243
  P      107.375    -119.615       2.281
  C      107.122    -121.918       1.154
  O      108.023    -120.882       1.531
  C      107.901    -123.156       0.691
  O      106.949    -124.235       0.426
  C      108.708    -122.910      -0.600
  O      110.089    -123.265      -0.510
  C      107.906    -123.665      -1.647
  O      108.645    -123.998      -2.807
  C      107.342    -124.830      -0.826
  N      106.233    -125.503      -1.496
  C      106.555    -126.497      -2.417
  O      107.700    -126.843      -2.691
  N      105.503    -127.059      -3.086
  C      104.201    -126.658      -3.014
  O      103.324    -127.140      -3.715
  C      103.928    -125.577      -2.052
  C      104.931    -125.072      -1.331
  O      106.797    -119.927       3.619
  O      108.605    -118.590       2.323
  H      108.279    -124.827      -3.168
  H      109.045    -118.441       1.467
  H      105.724    -127.777      -3.757
  H      102.906    -125.232      -1.981
  H      104.759    -124.276      -0.613
  H      108.113    -125.572      -0.604
  H      107.081    -123.016      -1.969
  H      108.725    -121.842      -0.856
  H      108.553    -123.464       1.511
  H      106.498    -121.561       0.332
  H      106.458    -122.157       1.990
  P      111.271    -122.574      -1.340
  C      111.881    -124.655      -2.769
  O      111.406    -123.326      -2.744
  O      112.554    -122.397      -0.592
  O      110.659    -121.149      -1.746
  H      111.377    -120.497      -1.833
  H      112.377    -124.833      -3.727
  H      111.034    -125.343      -2.685
  H      112.593    -124.846      -1.963
  H      106.014    -117.858      -0.453
  H      107.411    -118.907      -0.506
  H      107.465    -117.425       0.419

 3  4  5  6  7  8  9  10  11  12  13  23  28  29  30  31  32 0
 6-311+G(2d,p)
 ****
 33  34 0
 6-311+G(2d,p)
 ****
 1  2  14  15  16  17  18  19  20  21  22  24  25  26  27 0
 3-21G
 ****
 35  36  37  38  39  40  41  42  43  44  45 0
 3-21G
 ****


