%nproc=1
%NoSave
%Mem=1900MB
#P OB98/GEN NMR

erre ene a

0 1
  C     -518.311     107.727    -396.171
  O     -519.475     107.141    -396.718
  H     -517.821     106.996    -395.525
  H     -518.570     108.608    -395.578
  H     -517.621     108.007    -396.972
  P     -520.373     108.076    -397.663
  C     -522.698     107.827    -396.576
  O     -521.832     107.401    -397.622
  C     -524.120     107.319    -396.824
  O     -524.635     107.951    -398.027
  C     -524.205     105.802    -397.026
  O     -525.418     105.322    -396.451
  C     -524.276     105.662    -398.541
  O     -524.868     104.433    -398.940
  C     -525.072     106.910    -398.914
  N     -526.771     106.251    -403.670
  C     -527.279     105.896    -402.469
  N     -526.770     106.135    -401.246
  C     -525.640     106.864    -401.336
  C     -525.001     107.298    -402.481
  C     -525.611     106.951    -403.702
  N     -525.084     107.276    -404.931
  N     -523.844     107.974    -402.159
  C     -523.787     107.960    -400.842
  N     -524.846     107.283    -400.300
  O     -519.829     108.328    -399.028
  O     -520.568     109.376    -396.750
  H     -524.829     104.370    -399.921
  H     -520.814     109.139    -395.835
  H     -528.216     105.342    -402.502
  H     -523.010     108.411    -400.237
  H     -526.157     106.774    -398.788
  H     -523.269     105.703    -398.964
  H     -523.354     105.266    -396.606
  H     -524.759     107.646    -395.994
  H     -522.705     108.923    -396.519
  H     -525.586     106.990    -405.757
  H     -524.225     107.803    -404.977
  H     -522.309     107.429    -395.635
  P     -525.394     104.709    -394.973
  C     -525.860     102.216    -395.419
  O     -526.374     103.444    -394.916
  O     -525.574     105.696    -393.863
  O     -523.944     104.025    -394.898
  H     -523.544     104.208    -394.023
  H     -526.604     101.453    -395.326
  H     -524.992     101.937    -394.860
  H     -525.597     102.335    -396.449

 6  7  8  9  10  11  12  13  14  15  25  28  32  33  34  35 0
 6-311+G(2d,p)
 ****
 36  39  40 0
 6-311+G(2d,p)
 ****
 1  2  3  4  5  16  17  18  19  20  21  22  23  24 0
 3-21G
 ****
 26  27  29  30  31  37  38  41  42  43  44  45  46  47 0
 3-21G
 ****
 48 0
 3-21G
 ****


