%nproc=1
%NoSave
%Mem=1900MB
#P OB98/GEN NMR

erre ene a

0 1
  C      -67.050     660.215    -258.960
  O      -66.684     660.279    -260.337
  P      -67.599     659.478    -261.380
  C      -65.711     657.812    -262.121
  O      -66.629     658.830    -262.483
  C      -64.518     657.779    -263.093
  O      -65.028     657.611    -264.444
  C      -63.679     659.053    -263.137
  O      -62.411     658.745    -263.726
  C      -64.475     659.918    -264.089
  O      -63.691     660.988    -264.609
  C      -64.978     658.893    -265.128
  N      -66.310     659.218    -265.685
  C      -66.409     659.496    -267.046
  O      -65.451     659.500    -267.813
  N      -67.659     659.832    -267.503
  C      -68.800     659.867    -266.764
  O      -69.877     660.255    -267.197
  C      -68.667     659.423    -265.370
  C      -67.453     659.134    -264.902
  O      -68.368     660.639    -262.174
  O      -68.539     658.515    -260.746
  H      -63.099     661.291    -263.876
  H      -69.300     660.683    -261.881
  H      -67.729     660.109    -268.472
  H      -69.565     659.364    -264.768
  H      -67.333     658.824    -263.863
  H      -64.285     658.809    -265.970
  H      -65.322     660.361    -263.565
  H      -63.528     659.530    -262.170
  H      -63.891     656.908    -262.869
  H      -66.212     656.846    -262.106
  H      -65.348     657.995    -261.105
  P      -61.131     658.663    -262.762
  C      -59.856     660.849    -263.205
  O      -59.962     659.466    -263.496
  O      -60.774     657.298    -262.260
  O      -61.530     659.647    -261.556
  H      -60.979     659.459    -260.778
  H      -58.820     661.156    -263.304
  H      -60.203     661.073    -262.192
  H      -60.466     661.409    -263.925
  H      -66.359     660.790    -258.380
  H      -67.029     659.197    -258.632
  H      -68.036     660.610    -258.834

 3  4  5  6  7  8  9  10  11  12  13  23  28  29  30  31  32 0
 6-311+G(2d,p)
 ****
 33  34 0
 6-311+G(2d,p)
 ****
 1  2  14  15  16  17  18  19  20  21  22  24  25  26  27 0
 3-21G
 ****
 35  36  37  38  39  40  41  42  43  44  45 0
 3-21G
 ****


