%nproc=1
%NoSave
%Mem=1900MB
#P OB98/GEN NMR

erre ene a

0 1
  C       46.430     828.717    -186.297
  O       45.782     827.979    -187.316
  H       45.820     828.716    -185.383
  H       47.390     828.242    -186.075
  H       46.609     829.746    -186.621
  P       44.357     828.538    -187.810
  C       45.660     830.208    -189.308
  O       44.619     830.023    -188.355
  C       45.194     831.130    -190.430
  O       44.778     832.402    -189.887
  C       46.262     831.460    -191.470
  O       46.407     830.407    -192.415
  C       45.660     832.705    -192.102
  O       44.631     832.320    -193.039
  C       45.032     833.413    -190.899
  N       47.138     838.017    -191.679
  C       46.255     837.286    -192.409
  N       45.730     836.078    -192.129
  C       46.171     835.635    -190.939
  C       47.047     836.280    -190.072
  C       47.542     837.531    -190.488
  N       48.485     838.232    -189.757
  N       47.276     835.500    -188.947
  C       46.569     834.405    -189.151
  N       45.886     834.443    -190.333
  O       43.571     828.775    -186.420
  O       43.599     827.628    -188.719
  H       44.276     833.145    -193.428
  H       43.002     828.005    -186.244
  H       45.955     837.736    -193.360
  H       46.539     833.562    -188.472
  H       44.063     833.881    -191.142
  H       46.395     833.301    -192.660
  H       47.215     831.725    -190.998
  H       44.318     830.668    -190.896
  H       45.943     829.236    -189.732
  H       49.090     838.821    -190.332
  H       48.943     837.698    -189.021
  H       46.531     830.635    -188.792
  P       47.806     830.297    -193.190
  C       48.842     828.672    -191.463
  O       48.923     829.946    -192.085
  O       48.124     831.828    -193.585
  O       47.799     829.420    -194.404
  H       48.245     831.901    -194.544
  H       49.638     828.569    -190.755
  H       48.924     827.906    -192.206
  H       47.903     828.580    -190.959

 6  7  8  9  10  11  12  13  14  15  25  28  32  33  34  35 0
 6-311+G(2d,p)
 ****
 36  39  40 0
 6-311+G(2d,p)
 ****
 1  2  3  4  5  16  17  18  19  20  21  22  23  24 0
 3-21G
 ****
 26  27  29  30  31  37  38  41  42  43  44  45  46  47  48 0
 3-21G
 ****


