%nproc=1
%NoSave
%Mem=1900MB
#P OB98/GEN NMR

erre ene a

0 1
  C      -74.634     260.778     377.855
  O      -75.328     260.654     379.099
  P      -75.770     261.957     379.923
  C      -73.790     262.146     381.532
  O      -74.452     262.736     380.419
  C      -72.539     262.920     381.973
  O      -71.982     262.362     383.191
  C      -71.407     262.958     380.937
  O      -70.762     264.225     381.106
  C      -70.504     261.827     381.406
  O      -69.190     261.923     380.880
  C      -70.625     261.974     382.932
  N      -70.265     260.746     383.634
  C      -68.971     260.671     384.151
  O      -68.168     261.589     383.962
  N      -68.595     259.538     384.839
  C      -69.408     258.535     384.907
  N      -68.976     257.433     385.576
  C      -70.754     258.535     384.297
  C      -71.114     259.669     383.694
  O      -76.783     261.709     380.993
  O      -76.369     262.934     378.801
  H      -68.643     261.216     381.291
  H      -77.060     263.496     379.197
  H      -71.391     257.666     384.361
  H      -72.082     259.773     383.224
  H      -69.970     262.781     383.291
  H      -70.923     260.866     381.087
  H      -71.751     262.822     379.911
  H      -72.855     263.943     382.210
  H      -68.038     257.461     385.959
  H      -73.500     261.123     381.265
  H      -69.481     256.560     385.589
  H      -74.493     262.075     382.369
  P      -71.133     265.486     380.199
  C      -69.132     265.456     378.603
  O      -70.523     265.215     378.746
  O      -70.768     266.814     380.789
  O      -72.717     265.378     379.958
  H      -73.059     266.244     379.663
  H      -68.797     265.041     377.655
  H      -68.570     264.988     379.416
  H      -68.946     266.535     378.599
  H      -74.428     259.804     377.463
  H      -73.714     261.302     378.011
  H      -75.241     261.321     377.161

 3  4  5  6  7  8  9  10  11  12  13  23  27  28  29  30  32 0
 6-311+G(2d,p)
 ****
 34  35 0
 6-311+G(2d,p)
 ****
 1  2  14  15  16  17  18  19  20  21  22  24  25  26 0
 3-21G
 ****
 31  33  36  37  38  39  40  41  42  43  44  45  46 0
 3-21G
 ****


