%nproc=1
%NoSave
%Mem=1900MB
#P OB98/GEN NMR

erre ene a

0 1
  C     -314.772     195.189    -150.600
  O     -315.800     195.378    -149.646
  H     -314.729     196.068    -151.249
  H     -314.985     194.307    -151.212
  H     -313.807     195.070    -150.100
  P     -316.014     194.202    -148.577
  C     -317.959     192.974    -149.793
  O     -316.592     192.948    -149.394
  C     -318.598     191.614    -149.524
  O     -318.129     190.654    -150.501
  C     -318.239     191.021    -148.168
  O     -318.987     191.595    -147.113
  C     -318.549     189.551    -148.399
  O     -319.944     189.273    -148.219
  C     -318.154     189.352    -149.870
  N     -315.130     186.722    -153.033
  C     -316.334     187.304    -153.213
  N     -317.072     187.999    -152.318
  C     -316.428     188.091    -151.145
  C     -315.196     187.553    -150.815
  C     -314.529     186.841    -151.826
  N     -313.311     186.226    -151.637
  N     -314.882     187.826    -149.498
  C     -315.905     188.519    -149.041
  N     -316.861     188.709    -150.000
  O     -317.270     194.713    -147.724
  O     -314.835     193.909    -147.711
  H     -320.185     189.634    -147.343
  H     -316.956     195.103    -146.886
  H     -316.773     187.186    -154.201
  H     -316.003     188.901    -148.029
  H     -318.881     188.740    -150.416
  H     -317.992     188.920    -147.706
  H     -317.164     191.130    -147.982
  H     -319.686     191.710    -149.633
  H     -318.019     193.197    -150.862
  H     -318.478     193.760    -149.235
  H     -312.927     185.673    -152.384
  H     -312.910     186.211    -150.707
  P     -318.177     192.263    -145.901
  C     -318.325     190.117    -144.424
  O     -317.495     191.070    -145.072
  O     -319.323     192.799    -144.920
  O     -317.237     193.348    -146.305
  H     -319.035     193.635    -144.501
  H     -317.715     189.396    -143.921
  H     -318.935     189.623    -145.151
  H     -318.950     190.614    -143.712

 6  7  8  9  10  11  12  13  14  15  25  28  32  33  34  35 0
 6-311+G(2d,p)
 ****
 36  37  40 0
 6-311+G(2d,p)
 ****
 1  2  3  4  5  16  17  18  19  20  21  22  23  24 0
 3-21G
 ****
 26  27  29  30  31  38  39 41  42  43  44  45  46  47  48 0
 3-21G
 ****


