%nproc=1
%NoSave
%Mem=1900MB
#P OB98/GEN NMR

erre ene a

0 1
  C     -325.785      59.438     127.872
  O     -324.726      60.374     128.017
  P     -325.118      61.931     128.064
  C     -325.138      62.141     125.472
  O     -325.877      62.250     126.685
  C     -325.798      62.941     124.346
  O     -325.004      62.802     123.143
  C     -327.227      62.500     124.019
  O     -327.984      63.669     123.694
  C     -327.061      61.657     122.772
  O     -328.263      61.610     122.005
  C     -325.881      62.358     122.087
  N     -325.187      61.489     121.146
  C     -323.905      61.883     120.745
  O     -323.442      62.962     121.128
  N     -323.199      61.077     119.885
  C     -323.770      60.023     119.383
  N     -323.029      59.257     118.540
  C     -325.163      59.641     119.684
  C     -325.798      60.396     120.575
  O     -323.702      62.659     127.880
  O     -325.821      62.360     129.310
  H     -328.904      61.026     122.476
  H     -323.686      63.508     128.361
  H     -325.602      58.774     119.206
  H     -326.814      60.178     120.872
  H     -326.223      63.252     121.546
  H     -326.788      60.628     123.049
  H     -327.707      61.970     124.851
  H     -325.782      64.001     124.626
  H     -322.081      59.547     118.342
  H     -325.103      61.091     125.170
  H     -323.388      58.417     118.096
  H     -324.111      62.486     125.639
  P     -328.952      64.267     124.822
  C     -331.056      63.055     123.989
  O     -330.094      63.159     125.021
  O     -329.742      65.396     124.001
  O     -328.336      64.835     126.060
  H     -330.333      65.890     124.600
  H     -331.684      62.180     124.184
  H     -330.566      62.929     123.018
  H     -331.691      63.947     123.975
  H     -325.384      58.446     127.856
  H     -326.306      59.628     126.957
  H     -326.462      59.536     128.694

 3  4  5  6  7  8  9  10  11  12  13  21  23  27  28  29  30  32 0
 6-311+G(2d,p)
 ****
 34  35 0
 6-311+G(2d,p)
 ****
 1  2  14  15  16  17  18  19  20  22  24  25  26 0
 3-21G
 ****
 31  33  36  37  38  39  40  41  42  43  44  45  46 0
 3-21G
 ****


