%nproc=1
%NoSave
%Mem=1900MB
#P OB98/GEN NMR

erre ene a

0 1
  C      193.303     133.512      95.905
  O      194.494     134.279      95.953
  P      195.427     134.107      97.248
  C      195.896     136.666      97.092
  O      195.561     135.555      97.920
  C      195.134     137.911      97.546
  O      193.720     137.739      97.307
  C      195.257     138.221      99.033
  O      196.520     138.795      99.332
  C      194.070     139.160      99.221
  O      194.402     140.476      98.748
  C      193.010     138.522      98.306
  N      188.262     138.062     100.171
  C      188.886     139.078      99.532
  N      190.161     139.132      99.087
  C      190.805     137.987      99.352
  C      190.308     136.876     100.015
  C      188.969     136.936     100.436
  N      188.339     135.902     101.092
  N      191.273     135.896     100.127
  C      192.333     136.403      99.527
  N      192.095     137.657      99.029
  O      196.877     133.855      96.620
  O      195.019     133.008      98.179
  H      193.624     141.047      98.906
  H      197.397     133.246      97.180
  H      188.283     139.963      99.352
  H      193.285     135.900      99.423
  H      192.410     139.270      97.776
  H      193.757     139.256     100.267
  H      195.113     137.312      99.630
  H      195.483     138.760      96.946
  H      195.623     136.443      96.056
  H      187.428     136.085     101.490
  H      188.905     135.127     101.410
  H      196.976     136.829      97.141
  P      197.553     137.901     100.180
  C      197.161     139.531     102.131
  O      197.129     138.178     101.705
  O      198.903     138.742     100.033
  O      197.626     136.471      99.773
  H      198.768     139.689     100.221
  H      196.803     139.580     103.162
  H      196.510     140.141     101.499
  H      198.185     139.911     102.092
  H      192.780     133.722      94.995
  H      192.682     133.764      96.739
  H      193.547     132.471      95.944

 3  4  5  6  7  8  9  10  11  12  22  25  29  30  31  32 0
 6-311+G(2d,p)
 ****
 33  36  37 0
 6-311+G(2d,p)
 ****
 1  2  13  14  15  16  17  18  19  20  21  23  24  26 0
 3-21G
 ****
 27  28  34  35  38  39  40  41  42  43  44  45  46  47  48 0
 3-21G
 ****


