%nproc=1
%NoSave
%Mem=1900MB
#P OB98/GEN NMR

erre ene a

0 1
  C      421.104    -127.894     -36.875
  O      422.507    -127.792     -36.748
  H      420.861    -128.131     -37.912
  H      420.634    -126.942     -36.615
  H      420.710    -128.690     -36.235
  P      423.143    -127.631     -35.287
  C      424.440    -129.855     -35.495
  O      424.518    -128.453     -35.287
  C      425.485    -130.312     -36.516
  O      425.096    -129.819     -37.835
  C      426.911    -129.791     -36.240
  O      427.824    -130.772     -36.752
  C      426.923    -128.531     -37.088
  O      428.211    -127.987     -37.234
  C      426.220    -129.065     -38.344
  N      425.778    -128.051     -39.294
  C      426.739    -127.466     -40.110
  O      427.936    -127.747     -40.094
  N      426.278    -126.513     -40.983
  C      424.982    -126.112     -41.121
  O      424.624    -125.275     -41.941
  C      424.011    -126.762     -40.224
  C      424.448    -127.690     -39.370
  O      422.227    -127.930     -34.145
  O      423.639    -126.108     -35.258
  H      423.004    -125.565     -34.756
  H      428.515    -127.648     -36.365
  H      426.959    -126.082     -41.584
  H      422.977    -126.460     -40.301
  H      423.754    -128.194     -38.703
  H      426.875    -129.780     -38.859
  H      426.322    -127.753     -36.606
  H      427.110    -129.626     -35.178
  H      425.471    -131.408     -36.574
  H      423.436    -130.088     -35.866
  H      424.595    -130.370     -34.541
  P      428.642    -131.789     -35.819
  C      428.815    -133.497     -37.758
  O      429.510    -132.749     -36.768
  O      427.789    -132.528     -34.838
  O      429.737    -130.889     -35.071
  H      429.982    -131.313     -34.223
  H      429.513    -134.089     -38.313
  H      428.309    -132.827     -38.421
  H      428.101    -134.138     -37.285

 6  7  8  9  10  11  12  13  14  15  16  27  31  32  33  34  35 0
 6-311+G(2d,p)
 ****
 36  37 0
 6-311+G(2d,p)
 ****
 1  2  3  4  5  17  18  19  20  21  22  23  24  25 0
 3-21G
 ****
 26  28  29  30  38  39  40  41  42  43  44  45 0
 3-21G
 ****


