%nproc=1
%NoSave
%Mem=1900MB
#P OB98/GEN NMR

erre ene a

0 1
  C       34.188     135.988     -46.723
  O       34.221     135.839     -45.317
  H       33.172     136.220     -47.054
  H       34.847     136.814     -47.004
  H       34.542     135.073     -47.210
  P       33.336     134.649     -44.701
  C       31.534     136.417     -44.095
  O       31.818     135.172     -44.713
  C       30.088     136.447     -43.610
  O       29.185     136.435     -44.738
  C       29.681     135.261     -42.744
  O       30.118     135.409     -41.402
  C       28.164     135.341     -42.849
  O       27.668     136.361     -41.963
  C       27.966     135.771     -44.311
  N       24.309     133.062     -46.653
  C       24.257     134.169     -45.877
  N       25.277     134.843     -45.306
  C       26.453     134.277     -45.620
  C       26.669     133.165     -46.419
  C       25.527     132.538     -46.944
  N       25.590     131.365     -47.685
  N       28.017     132.873     -46.498
  C       28.601     133.784     -45.748
  N       27.699     134.659     -45.204
  O       33.737     134.674     -43.149
  O       33.565     133.305     -45.310
  H       26.726     136.485     -42.177
  H       34.423     134.000     -42.984
  H       23.261     134.562     -45.686
  H       29.665     133.847     -45.568
  H       27.149     136.495     -44.424
  H       27.665     134.405     -42.576
  H       30.020     134.311     -43.176
  H       29.932     137.392     -43.073
  H       31.690     137.226     -44.819
  H       24.757     130.788     -47.596
  H       26.484     130.889     -47.638
  H       32.219     136.554     -43.251
  P       31.193     134.357     -40.843
  C       29.340     132.711     -40.097
  O       30.492     132.913     -40.907
  O       31.236     134.691     -39.279
  O       32.550     134.445     -41.454
  H       32.154     134.891     -39.011
  H       28.977     131.714     -40.235
  H       28.580     133.409     -40.378
  H       29.597     132.858     -39.069

 6  7  8  9  10  11  12  13  14  15  25  28  32  33  34  35 0
 6-311+G(2d,p)
 ****
 36  39  40 0
 6-311+G(2d,p)
 ****
 1  2  3  4  5  16  17  18  19  20  21  22  23  24 0
 3-21G
 ****
 26  27  29  30  31  37  38  41  42  43  44  45  46  47  48 0
 3-21G
 ****


