%nproc=1
%NoSave
%Mem=1900MB
#P OB98/GEN NMR

erre ene a

0 1
  C       -9.838     -65.461      68.247
  O      -10.618     -65.359      67.065
  P      -10.911     -66.708      66.246
  C       -8.762     -66.220      64.891
  O       -9.504     -67.181      65.630
  C       -7.433     -66.804      64.424
  O       -6.713     -67.317      65.580
  C       -7.567     -67.956      63.417
  O       -6.599     -67.787      62.372
  C       -7.166     -69.181      64.221
  O       -6.669     -70.226      63.392
  C       -6.129     -68.567      65.161
  N       -4.407     -73.080      66.635
  C       -4.384     -72.491      65.386
  N       -3.881     -73.239      64.377
  N       -4.818     -71.283      65.143
  C       -5.263     -70.641      66.251
  C       -5.328     -71.114      67.542
  C       -4.900     -72.476      67.783
  O       -4.978     -73.085      68.848
  N       -5.825     -70.163      68.397
  C       -6.064     -69.119      67.627
  N       -5.787     -69.377      66.308
  O      -11.727     -66.181      64.974
  O      -11.677     -67.749      66.986
  H       -5.946     -69.846      62.857
  H      -12.584     -66.645      64.917
  H       -4.075     -74.022      66.762
  H       -6.467     -68.176      67.971
  H       -5.201     -68.346      64.619
  H       -8.039     -69.553      64.768
  H       -3.498     -74.162      64.501
  H       -8.566     -68.058      62.981
  H       -3.834     -72.816      63.458
  H       -6.824     -65.992      64.006
  H       -8.569     -65.350      65.526
  H       -9.355     -65.902      64.026
  P       -7.168     -67.832      60.870
  C       -6.636     -70.350      60.466
  O       -7.621     -69.349      60.623
  O       -5.853     -67.676      59.971
  O       -8.190     -66.785      60.577
  H       -6.080     -67.309      59.096
  H       -5.631     -69.983      60.698
  H       -6.652     -70.707      59.433
  H       -6.868     -71.184      61.133
  H       -9.725     -64.491      68.685
  H       -8.874     -65.858      68.005
  H      -10.327     -66.111      68.942

 3  4  5  6  7  8  9  10  11  12  23  26  30  31  33  0
 6-311+G(2d,p)
 ****
 35  36  37  38 0
 6-311+G(2d,p)
 ****
 1  2  13  14  15  16  17  18  19  20  21  22  24  25  27  28  29 0
 3-21G
 ****
 32  34  39  40  41  42  43  44  45  46  47  48  49 0
 3-21G
 ****


