%nproc=1
%NoSave
%Mem=1900MB
#P OB98/GEN NMR

erre ene a

0 1
  C       64.374    -358.329    -110.892
  O       63.154    -357.976    -110.268
  P       62.978    -356.527    -109.612
  C       61.375    -355.508    -111.392
  O       62.659    -355.507    -110.809
  C       61.077    -354.171    -112.081
  O       59.804    -354.292    -112.758
  C       60.934    -352.982    -111.136
  O       61.079    -351.777    -111.896
  C       59.499    -353.120    -110.677
  O       58.981    -351.903    -110.152
  C       58.789    -353.650    -111.948
  N       57.721    -354.606    -111.612
  C       56.515    -354.073    -111.175
  O       56.292    -352.862    -111.130
  N       55.599    -354.977    -110.698
  C       55.799    -356.321    -110.590
  O       55.112    -357.060    -109.896
  C       56.984    -356.841    -111.287
  C       57.892    -355.973    -111.735
  O       64.471    -356.150    -109.177
  O       62.034    -356.465    -108.460
  H       59.600    -351.609    -109.444
  H       64.612    -356.360    -108.238
  H       54.784    -354.580    -110.247
  H       57.104    -357.915    -111.354
  H       58.802    -356.331    -112.210
  H       58.343    -352.834    -112.529
  H       59.450    -353.872    -109.878
  H       61.633    -352.988    -110.298
  H       61.848    -353.970    -112.840
  H       60.629    -355.718    -110.623
  H       61.295    -356.317    -112.132
  P       61.682    -350.491    -111.151
  C       64.056    -350.815    -112.081
  O       63.240    -350.790    -110.924
  O       60.934    -350.024    -109.946
  O       61.698    -349.380    -112.308
  H       61.760    -348.492    -111.909
  H       65.065    -350.509    -111.805
  H       63.675    -350.140    -112.856
  H       64.087    -351.835    -112.476
  H       64.306    -359.328    -111.269
  H       65.169    -358.271    -110.179
  H       64.570    -357.655    -111.700

 3  4  5  6  7  8  9  10  11  12  13  23  28  29  30  31  32 0
 6-311+G(2d,p)
 ****
 33  34 0
 6-311+G(2d,p)
 ****
 1  2  14  15  16  17  18  19  20  21  22  24  25  26  27 0
 3-21G
 ****
 35  36  37  38  39  40  41  42  43  44  45 0
 3-21G
 ****


