%nproc=1
%NoSave
%Mem=1900MB
#P OB98/GEN NMR

erre ene a

0 1
  C      171.796     412.086    -258.690
  O      171.319     411.795    -259.990
  H      170.939     412.200    -258.021
  H      172.362     413.022    -258.700
  H      172.425     411.269    -258.321
  P      172.421     411.411    -261.094
  C      174.326     412.784    -262.273
  O      173.172     412.784    -261.450
  C      174.404     414.071    -263.095
  O      173.244     414.135    -263.964
  C      174.421     415.342    -262.247
  O      175.260     416.307    -262.893
  C      172.980     415.820    -262.297
  O      172.865     417.216    -262.033
  C      172.571     415.389    -263.713
  N      171.122     415.262    -263.863
  C      170.476     416.274    -264.578
  O      171.117     417.219    -265.038
  N      169.110     416.213    -264.726
  C      168.443     415.265    -264.151
  N      167.092     415.276    -264.310
  C      169.081     414.199    -263.347
  C      170.409     414.251    -263.257
  O      171.512     411.128    -262.379
  O      173.312     410.280    -260.707
  H      171.954     417.504    -262.261
  H      170.813     411.793    -262.513
  H      168.480     413.429    -262.879
  H      170.959     413.507    -262.694
  H      172.932     416.114    -264.456
  H      172.381     415.287    -261.551
  H      174.775     415.168    -261.227
  H      175.284     414.018    -263.746
  H      166.695     416.039    -264.853
  H      174.313     411.921    -262.949
  H      166.467     414.620    -263.865
  H      175.206     412.693    -261.622
  P      176.790     416.448    -262.438
  C      178.227     418.000    -260.949
  O      176.915     417.613    -261.346
  O      177.788     416.502    -263.544
  O      177.016     415.121    -261.552
  H      177.903     414.772    -261.765
  H      178.163     418.781    -260.221
  H      178.769     418.351    -261.802
  H      178.734     417.158    -260.526

 6  7  8  9  10  11  12  13  14  15  16  26  30  31  32  33  35 0
 6-311+G(2d,p)
 ****
 37  38 0
 6-311+G(2d,p)
 ****
 1  2  3  4  5  17  18  19  20  21  22  23  24  25 0
 3-21G
 ****
 27  28  29  34  36  39  40  41  42  43  44  45  46 0
 3-21G
 ****


