%nproc=1
%NoSave
%Mem=1900MB
#P OB98/GEN NMR

erre ene a

0 1
  C      546.972    -829.257     120.939
  O      545.788    -828.475     121.054
  P      545.472    -827.483     122.263
  C      543.858    -829.163     123.477
  O      545.033    -828.370     123.521
  C      543.568    -829.866     124.802
  O      543.036    -828.919     125.765
  C      542.468    -830.939     124.615
  O      542.815    -832.224     124.131
  C      541.699    -830.943     125.931
  O      542.174    -831.946     126.829
  C      541.951    -829.543     126.486
  N      537.869    -827.780     129.014
  C      538.798    -828.714     129.410
  N      538.595    -829.293     130.614
  N      539.833    -829.054     128.693
  C      539.869    -828.472     127.465
  C      538.985    -827.547     126.943
  C      537.869    -827.127     127.779
  O      537.025    -826.291     127.480
  N      539.327    -827.193     125.656
  C      540.397    -827.915     125.412
  N      540.764    -828.714     126.462
  O      544.605    -826.316     121.930
  O      546.923    -826.919     122.676
  H      541.669    -831.869     127.659
  H      546.784    -825.997     122.994
  H      537.100    -827.535     129.617
  H      540.941    -827.915     124.473
  H      542.274    -829.602     127.540
  H      540.633    -831.158     125.758
  H      537.775    -829.145     131.173
  H      541.758    -830.548     123.861
  H      539.155    -830.110     130.822
  H      544.473    -830.272     125.247
  H      544.003    -829.892     122.673
  H      543.001    -828.539     123.191
  P      542.995    -832.629     122.590
  C      540.547    -833.360     122.417
  O      541.572    -832.532     121.875
  O      543.257    -834.211     122.650
  O      544.105    -831.935     121.873
  H      543.635    -834.524     121.796
  H      539.732    -833.447     121.679
  H      540.147    -832.911     123.308
  H      540.940    -834.360     122.638
  H      546.933    -829.833     120.038
  H      547.048    -829.915     121.780
  H      547.825    -828.611     120.913

 3  4  5  6  7  8  9  10  11  12  23  26  30  31 0
 6-311+G(2d,p)
 ****
 33  35  36  37  38 0
 6-311+G(2d,p)
 ****
 1  2  13  14  15  16  17  18  19  20  21  22  24  25 0
 3-21G
 ****
 27  28  29  32  34  39  40  41  42  43  44  45  46  47  48  49 0
 3-21G
 ****


