%nproc=1
%NoSave
%Mem=1900MB
#P OB98/GEN NMR

erre ene a

0 1
  C     -191.835    1175.801    -628.618
  O     -192.497    1175.609    -627.370
  P     -193.989    1174.985    -627.386
  C     -193.128    1172.608    -626.708
  O     -193.860    1173.403    -627.635
  C     -192.583    1171.346    -627.392
  O     -191.530    1171.652    -628.323
  C     -191.964    1170.346    -626.409
  O     -192.979    1169.538    -625.804
  C     -191.116    1169.489    -627.361
  O     -191.942    1168.562    -628.048
  C     -190.588    1170.554    -628.339
  N     -185.542    1169.822    -628.880
  C     -186.607    1169.102    -629.308
  N     -187.918    1169.353    -629.109
  C     -188.080    1170.486    -628.401
  C     -187.092    1171.318    -627.893
  C     -185.767    1170.950    -628.159
  N     -184.684    1171.678    -627.709
  N     -187.656    1172.374    -627.205
  C     -188.953    1172.201    -627.298
  N     -189.256    1171.062    -628.011
  O     -194.587    1175.544    -628.758
  O     -194.819    1175.386    -626.212
  H     -191.368    1167.998    -628.595
  H     -195.538    1175.690    -628.660
  H     -186.367    1168.210    -629.899
  H     -189.702    1172.877    -626.883
  H     -190.543    1170.180    -629.373
  H     -190.346    1168.932    -626.828
  H     -191.329    1170.845    -625.673
  H     -193.407    1170.862    -627.941
  H     -193.771    1172.345    -625.864
  H     -183.774    1171.369    -627.973
  H     -184.842    1172.533    -627.200
  H     -192.314    1173.218    -626.294
  P     -193.530    1170.018    -624.384
  C     -195.673    1171.069    -625.445
  O     -194.484    1171.271    -624.686
  O     -192.239    1170.665    -623.669
  O     -194.137    1168.930    -623.554
  H     -192.306    1170.572    -622.710
  H     -196.337    1171.937    -625.311
  H     -196.191    1170.164    -625.111
  H     -195.420    1170.975    -626.517
  H     -190.865    1176.218    -628.447
  H     -192.408    1176.469    -629.226
  H     -191.736    1174.860    -629.118

 3  4  5  6  7  8  9  10  11  12  22  25  29  30  31  32 0
 6-311+G(2d,p)
 ****
 33  36  37 0
 6-311+G(2d,p)
 ****
 1  2  13  14  15  16  17  18  19  20  21  23  24  26 0
 3-21G
 ****
 27  28  34  35  38  39  40  41  42  43  44  45  46  47  48 0
 3-21G
 ****


