%nproc=1
%NoSave
%Mem=1900MB
#P OB98/GEN NMR

erre ene a

0 1
  C       96.947     -32.140      39.130
  O       97.975     -31.216      38.839
  H       97.371     -33.117      39.375
  H       96.380     -31.774      39.991
  H       96.271     -32.230      38.276
  P       98.989     -31.627      37.666
  C      100.155     -33.889      37.176
  O       99.744     -32.954      38.163
  C      100.469     -35.232      37.824
  O       99.255     -35.865      38.275
  C      101.132     -36.246      36.899
  O      102.520     -35.993      36.739
  C      100.883     -37.534      37.671
  O      101.856     -37.664      38.724
  C       99.488     -37.297      38.270
  N       97.001     -41.708      37.417
  C       98.039     -41.400      38.227
  N       98.655     -40.213      38.394
  C       98.086     -39.269      37.627
  C       97.024     -39.431      36.754
  C       96.476     -40.721      36.656
  N       95.428     -41.027      35.815
  N       96.703     -38.237      36.148
  C       97.556     -37.364      36.644
  N       98.417     -37.943      37.538
  O      100.130     -30.503      37.746
  O       98.392     -31.702      36.301
  H      102.730     -37.520      38.316
  H      100.441     -30.304      36.843
  H       98.426     -42.221      38.825
  H       97.583     -36.312      36.391
  H       99.437     -37.631      39.313
  H      100.953     -38.429      37.049
  H      100.618     -36.298      35.933
  H      101.096     -35.043      38.705
  H      101.053     -33.515      36.672
  H       94.955     -41.907      35.932
  H       95.035     -40.278      35.253
  H       99.354     -34.000      36.439
  P      103.222     -36.537      35.401
  C      103.839     -38.948      34.668
  O      103.706     -38.028      35.745
  O      104.591     -35.709      35.348
  O      102.424     -36.372      34.154
  H      104.906     -35.648      34.425
  H      104.167     -39.894      35.045
  H      104.557     -38.576      33.967
  H      102.894     -39.066      34.181

 6  7  8  9  10  11  12  13  14  15  25  28  32  33  34  35 0
 6-311+G(2d,p)
 ****
 36  39  40 0
 6-311+G(2d,p)
 ****
 1  2  3  4  5  16  17  18  19  20  21  22  23  24 0
 3-21G
 ****
 26  27  29  30  31  37  38  41  42  43  44  45  46  47  48 0
 3-21G
 ****


