%nproc=1
%NoSave
%Mem=1900MB
#P OB98/GEN NMR

erre ene a

0 1
  C      -36.147      -9.569      44.773
  O      -36.282      -8.376      45.528
  P      -37.238      -7.185      45.030
  C      -37.067      -5.405      43.164
  O      -36.412      -6.451      43.868
  C      -36.033      -4.450      42.575
  O      -35.326      -3.787      43.641
  C      -34.965      -5.122      41.723
  O      -35.473      -5.465      40.443
  C      -33.876      -4.056      41.732
  O      -34.181      -3.020      40.786
  C      -33.988      -3.501      43.168
  N      -32.982      -4.053      44.069
  C      -31.661      -3.650      43.852
  O      -31.379      -2.862      42.950
  N      -30.683      -4.123      44.690
  C      -30.990      -4.945      45.646
  N      -29.990      -5.327      46.487
  C      -32.359      -5.438      45.875
  C      -33.295      -4.953      45.062
  O      -37.729      -6.283      46.110
  O      -38.401      -7.916      44.219
  H      -33.868      -3.334      39.915
  H      -39.165      -8.189      44.784
  H      -32.564      -6.134      46.677
  H      -34.330      -5.250      45.178
  H      -33.895      -2.409      43.161
  H      -32.881      -4.446      41.493
  H      -34.596      -6.029      42.217
  H      -36.565      -3.687      41.990
  H      -29.111      -4.831      46.401
  H      -37.704      -4.857      43.866
  H      -30.189      -5.718      47.399
  H      -37.698      -5.837      42.379
  P      -34.871      -6.771      39.733
  C      -32.478      -7.624      39.216
  O      -33.277      -6.581      39.745
  O      -35.286      -6.579      38.200
  O      -35.366      -8.062      40.295
  H      -36.061      -7.130      37.987
  H      -31.461      -7.247      39.082
  H      -32.862      -7.955      38.248
  H      -32.451      -8.464      39.915
  H      -35.470     -10.232      45.271
  H      -35.766      -9.335      43.801
  H      -37.103     -10.041      44.678

 3  4  5  6  7  8  9  10  11  12  13  23  27  28  29  30  32 0
 6-311+G(2d,p)
 ****
 34  35 0
 6-311+G(2d,p)
 ****
 1  2  14  15  16  17  18  19  20  21  22  24  25  26 0
 3-21G
 ****
 31  33  36  37  38  39  40  41  42  43  44  45  46 0
 3-21G
 ****


