%nproc=1
%NoSave
%Mem=1900MB
#P OB98/GEN NMR

erre ene a

0 1
  C       -2.664      96.423     -18.072
  O       -1.432      95.892     -17.630
  H       -2.518      97.475     -18.335
  H       -3.406      96.366     -17.270
  H       -3.027      95.890     -18.954
  P       -1.323      94.317     -17.353
  C        0.644      92.648     -17.184
  O        0.223      94.001     -17.070
  C        2.177      92.559     -17.206
  O        2.657      93.134     -18.463
  C        2.874      93.323     -16.058
  O        4.097      92.623     -15.771
  C        3.144      94.660     -16.726
  O        4.017      95.467     -15.984
  C        3.612      94.165     -18.098
  N        3.682      95.181     -19.143
  C        4.901      95.341     -19.799
  O        5.918      94.688     -19.570
  N        4.928      96.317     -20.767
  C        3.878      97.110     -21.140
  O        3.956      97.945     -22.037
  C        2.626      96.894     -20.405
  C        2.587      95.955     -19.459
  O       -1.971      93.432     -18.367
  O       -1.991      94.141     -15.905
  H       -2.899      93.796     -16.005
  H        4.880      95.007     -15.887
  H        5.796      96.446     -21.258
  H        1.773      97.516     -20.666
  H        1.668      95.767     -18.906
  H        4.587      93.676     -18.006
  H        2.209      95.226     -16.814
  H        2.266      93.382     -15.148
  H        2.467      91.496     -17.208
  H        0.238      92.244     -18.119
  H        0.248      92.076     -16.344
  P        4.330      91.759     -14.441
  C        6.047      89.912     -13.851
  O        5.822      91.169     -14.483
  O        3.282      90.717     -14.198
  O        4.374      92.822     -13.243
  H        4.096      92.393     -12.416
  H        7.077      89.640     -13.954
  H        5.433      89.166     -14.312
  H        5.800      89.986     -12.813

 6  7  8  9  10  11  12  13  14  15  16  27  31  32  33  34  35 0
 6-311+G(2d,p)
 ****
 36  37 0
 6-311+G(2d,p)
 ****
 1  2  3  4  5  17  18  19  20  21  22  23  24  25 0
 3-21G
 ****
 26  28  29  30  38  39  40  41  42  43  44  45 0
 3-21G
 ****


