%nproc=1
%NoSave
%Mem=1900MB
#P OB98/GEN NMR

erre ene a

0 1
  C      420.723     210.373     304.701
  O      421.924     209.830     305.271
  P      422.257     209.948     306.834
  C      424.829     210.021     306.663
  O      423.689     209.283     307.108
  C      426.091     209.149     306.628
  O      426.253     208.438     307.868
  C      426.098     208.086     305.533
  O      426.423     208.663     304.283
  C      427.128     207.106     306.076
  O      428.462     207.566     305.795
  C      426.855     207.163     307.592
  N      426.752     202.388     309.428
  C      427.776     203.202     309.092
  N      427.723     204.461     308.607
  C      426.448     204.869     308.497
  C      425.297     204.150     308.790
  C      425.484     202.848     309.281
  N      424.440     202.012     309.609
  N      424.168     204.895     308.526
  C      424.624     206.057     308.096
  N      425.999     206.086     308.052
  O      421.172     209.453     307.730
  O      422.525     211.510     307.080
  H      428.497     208.513     306.017
  H      422.301     211.744     308.000
  H      428.769     202.791     309.237
  H      424.009     206.893     307.797
  H      427.785     207.115     308.171
  H      427.027     206.103     305.653
  H      425.121     207.593     305.484
  H      426.956     209.818     306.517
  H      424.981     210.865     307.342
  H      424.658     201.078     309.916
  H      423.495     202.326     309.455
  H      424.616     210.411     305.660
  P      425.340     208.690     303.103
  C      426.900     208.292     301.103
  O      426.079     209.229     301.788
  O      424.051     209.376     303.429
  O      425.106     207.142     302.764
  H      424.190     207.020     302.440
  H      427.863     208.207     301.617
  H      427.065     208.658     300.086
  H      426.416     207.309     301.061
  H      420.709     210.180     303.649
  H      420.694     211.429     304.870
  H      419.872     209.915     305.160

 3  4  5  6  7  8  9  10  11  12  22  25  29  30  31  32 0
 6-311+G(2d,p)
 ****
 33  36  37 0
 6-311+G(2d,p)
 ****
 1  2  13  14  15  16  17  18  19  20  21  23  24  26 0
 3-21G
 ****
 27  28  34  35  38  39  40  41  42  43  44  45  46  47  48 0
 3-21G
 ****


