%nproc=1
%NoSave
%Mem=1900MB
#P OB98/GEN NMR

erre ene a

0 1
  C      284.054     165.901    -390.567
  O      284.454     165.632    -391.892
  H      284.081     166.983    -390.402
  H      284.740     165.425    -389.859
  H      283.034     165.550    -390.385
  P      284.309     164.139    -392.455
  C      285.345     161.846    -391.894
  O      285.147     163.189    -391.477
  C      286.015     161.039    -390.786
  O      287.351     161.539    -390.544
  C      285.300     161.121    -389.440
  O      284.137     160.311    -389.438
  C      286.405     160.664    -388.504
  O      286.518     159.227    -388.508
  C      287.649     161.315    -389.150
  N      288.050     162.567    -388.491
  C      288.573     162.442    -387.210
  O      288.676     161.370    -386.623
  N      288.978     163.618    -386.620
  C      288.825     164.870    -387.142
  O      289.150     165.891    -386.549
  C      288.229     164.932    -388.481
  C      287.875     163.801    -389.088
  O      284.607     163.963    -393.910
  O      282.793     163.755    -392.119
  H      287.378     159.016    -388.087
  H      282.240     163.854    -392.916
  H      289.351     163.548    -385.685
  H      288.087     165.911    -388.927
  H      287.431     163.827    -390.073
  H      288.499     160.630    -389.116
  H      286.228     160.962    -387.463
  H      285.047     162.161    -389.206
  H      286.095     160.003    -391.119
  H      285.988     161.842    -392.782
  H      284.374     161.408    -392.159
  P      283.017     160.480    -388.300
  C      282.540     159.544    -385.975
  O      283.375     159.462    -387.115
  O      281.610     160.410    -388.783
  O      283.339     161.913    -387.660
  H      282.674     162.570    -387.952
  H      282.860     158.828    -385.246
  H      281.529     159.338    -386.258
  H      282.600     160.528    -385.559

 6  7  8  9  10  11  12  13  14  15  16  26  31  32  33  34  35 0
 6-311+G(2d,p)
 ****
 36  37 0
 6-311+G(2d,p)
 ****
 1  2  3  4  5  17  18  19  20  21  22  23  24  25 0
 3-21G
 ****
 27  28  29  30  38  39  40  41  42  43  44  45 0
 3-21G
 ****


