%nproc=1
%NoSave
%Mem=1900MB
#P OB98/GEN NMR

erre ene a

0 1
  C      247.936    -365.755    -102.504
  O      249.127    -366.506    -102.600
  P      250.201    -366.455    -101.415
  C      249.964    -369.002    -101.148
  O      250.869    -367.907    -101.293
  C      250.705    -370.326    -101.288
  O      251.306    -370.430    -102.598
  C      251.851    -370.505    -100.300
  O      251.361    -370.837     -99.016
  C      252.655    -371.608    -100.976
  O      252.088    -372.895    -100.695
  C      252.485    -371.256    -102.462
  N      254.607    -369.528    -106.768
  C      253.531    -370.311    -106.547
  N      253.048    -370.765    -105.367
  C      253.821    -370.339    -104.353
  C      254.971    -369.564    -104.424
  C      255.352    -369.131    -105.703
  N      256.412    -368.282    -105.940
  N      255.501    -369.370    -103.164
  C      254.695    -370.018    -102.353
  N      253.633    -370.565    -103.018
  O      249.708    -365.875    -100.130
  O      251.389    -365.566    -102.017
  H      252.534    -373.544    -101.266
  H      251.512    -364.768    -101.466
  H      252.979    -370.607    -107.428
  H      254.827    -370.110    -101.277
  H      252.316    -372.149    -103.075
  H      253.701    -371.634    -100.644
  H      252.456    -369.592    -100.260
  H      249.977    -371.140    -101.186
  H      249.195    -368.919    -101.924
  H      256.509    -367.918    -106.874
  H      256.779    -367.743    -105.158
  H      249.481    -368.941    -100.167
  P      252.298    -370.641     -97.730
  C      251.619    -368.210     -97.285
  O      251.596    -369.539     -96.803
  O      253.746    -370.408     -98.018
  O      252.082    -371.993     -96.898
  H      252.903    -372.212     -96.421
  H      252.604    -367.773     -97.109
  H      250.868    -367.626     -96.742
  H      251.388    -368.179     -98.354
  H      247.344    -365.912    -103.381
  H      248.176    -364.716    -102.416
  H      247.385    -366.068    -101.642

 3  4  5  6  7  8  9  10  11  12  22  25  29  30  31  32 0
 6-311+G(2d,p)
 ****
 33  36  37 0
 6-311+G(2d,p)
 ****
 1  2  13  14  15  16  17  18  19  20  21  23  24  26 0
 3-21G
 ****
 27  28  34  35  38  39  40  41  42  43  44  45  46  47  48 0
 3-21G
 ****


