%nproc=1
%NoSave
%Mem=1900MB
#P OB98/GEN NMR

erre ene a

0 1
  C       49.436      58.817    -100.990
  O       48.735      59.603    -100.017
  P       47.458      60.514    -100.374
  C       48.412      62.699     -99.391
  O       47.925      62.040    -100.551
  C       48.464      64.223     -99.577
  O       49.075      64.551    -100.866
  C       47.088      64.918     -99.536
  O       47.276      66.159     -98.847
  C       46.797      65.138    -101.016
  O       45.808      66.118    -101.261
  C       48.206      65.515    -101.499
  N       48.393      65.505    -102.949
  C       48.371      66.736    -103.617
  O       48.143      67.789    -103.021
  N       48.586      66.751    -104.976
  C       48.800      65.640    -105.614
  N       49.021      65.727    -106.955
  C       48.814      64.320    -104.954
  C       48.609      64.329    -103.637
  O       46.320      60.351     -99.417
  O       47.018      60.073    -101.852
  H       46.044      60.109    -101.922
  H       46.095      66.950    -100.840
  H       49.003      63.421    -105.520
  H       48.630      63.401    -103.073
  H       48.475      66.502    -101.103
  H       46.455      64.193    -101.448
  H       46.320      64.338     -99.013
  H       49.124      64.639     -98.804
  H       49.011      66.655    -107.371
  H       49.425      62.338     -99.182
  H       49.204      64.929    -107.546
  H       47.772      62.443     -98.536
  P       46.773      66.309     -97.329
  C       44.555      67.476     -98.061
  O       45.171      66.414     -97.357
  O       47.189      67.823     -96.993
  O       47.377      65.373     -96.332
  H       47.311      67.916     -96.027
  H       43.718      67.077     -98.642
  H       45.246      67.982     -98.741
  H       44.167      68.204     -97.336
  H       50.245      58.301    -100.516
  H       49.822      59.458    -101.755
  H       48.765      58.106    -101.425

 3  4  5  6  7  8  9  10  11  12  13  24  27  28  29  30  32 0
 6-311+G(2d,p)
 ****
 34  35 0
 6-311+G(2d,p)
 ****
 1  2  14  15  16  17  18  19  20  21  22  23  25  26 0
 3-21G
 ****
 31  33  36  37  38  39  40  41  42  43  44  45  46 0
 3-21G
 ****


