%nproc=1
%NoSave
%Mem=1900MB
#P OB98/GEN NMR

erre ene a

0 1
  C     -208.196    -195.403    -339.204
  O     -207.168    -194.797    -338.437
  P     -207.553    -193.575    -337.470
  C     -208.272    -191.083    -337.883
  O     -207.978    -192.359    -338.424
  C     -207.895    -189.984    -338.886
  O     -206.442    -189.912    -338.983
  C     -208.442    -190.201    -340.304
  O     -208.749    -188.907    -340.841
  C     -207.257    -190.808    -341.034
  O     -207.337    -190.648    -342.439
  C     -206.095    -190.046    -340.377
  N     -204.803    -190.722    -340.520
  C     -203.933    -190.255    -341.497
  O     -204.195    -189.326    -342.267
  N     -202.737    -190.921    -341.601
  C     -202.364    -192.019    -340.875
  O     -201.284    -192.581    -341.017
  C     -203.341    -192.495    -339.886
  C     -204.490    -191.830    -339.749
  O     -206.113    -193.158    -336.915
  O     -208.555    -193.932    -336.423
  H     -205.408    -193.251    -337.577
  H     -206.626    -191.177    -342.846
  H     -202.073    -190.577    -342.281
  H     -203.087    -193.369    -339.308
  H     -205.232    -192.160    -339.029
  H     -206.029    -189.034    -340.792
  H     -207.205    -191.886    -340.814
  H     -209.330    -190.834    -340.319
  H     -208.240    -189.022    -338.484
  H     -207.699    -190.939    -336.962
  H     -209.334    -191.033    -337.632
  P     -210.071    -188.759    -341.750
  C     -210.585    -188.911    -344.313
  O     -209.643    -189.019    -343.271
  O     -210.275    -187.166    -341.700
  O     -211.267    -189.508    -341.250
  H     -209.457    -186.679    -341.885
  H     -210.049    -188.783    -345.265
  H     -211.248    -188.055    -344.172
  H     -211.180    -189.832    -344.367
  H     -207.782    -196.195    -339.792
  H     -208.637    -194.673    -339.849
  H     -208.944    -195.798    -338.549

 3  4  5  6  7  8  9  10  11  12  13  24  28  29  30  31  32 0
 6-311+G(2d,p)
 ****
 33  34 0
 6-311+G(2d,p)
 ****
 1  2  14  15  16  17  18  19  20  21  22  23  25  26  27 0
 3-21G
 ****
 35  36  37  38  39  40  41  42  43  44  45 0
 3-21G
 ****


