%nproc=1
%NoSave
%Mem=1900MB
#P OB98/GEN NMR

erre ene a

0 1
  C     -116.773     561.836    -106.593
  O     -116.413     561.106    -107.754
  H     -117.695     561.436    -106.169
  H     -115.970     561.737    -105.857
  H     -116.900     562.894    -106.838
  P     -117.450     561.148    -108.978
  C     -119.264     559.403    -109.619
  O     -118.649     560.155    -108.582
  C     -119.612     558.000    -109.118
  O     -118.410     557.296    -108.752
  C     -120.506     557.975    -107.884
  O     -121.873     558.179    -108.212
  C     -120.256     556.548    -107.392
  O     -121.034     555.622    -108.173
  C     -118.763     556.366    -107.689
  N     -117.858     555.178    -102.784
  C     -118.742     554.691    -103.685
  N     -118.904     555.039    -104.983
  C     -118.028     556.002    -105.330
  C     -117.054     556.575    -104.531
  C     -116.987     556.134    -103.195
  N     -116.126     556.693    -102.271
  N     -116.348     557.533    -105.244
  C     -116.901     557.540    -106.437
  N     -117.910     556.624    -106.537
  O     -116.669     560.365    -110.136
  O     -117.865     562.516    -109.417
  H     -120.890     555.859    -109.109
  H     -116.235     561.011    -110.724
  H     -119.405     553.916    -103.318
  H     -116.604     558.192    -107.246
  H     -118.532     555.363    -108.049
  H     -120.535     556.403    -106.341
  H     -120.157     558.683    -107.120
  H     -120.080     557.457    -109.951
  H     -118.579     559.324    -110.471
  H     -116.475     556.653    -101.318
  H     -115.701     557.565    -102.560
  H     -120.169     559.926    -109.943
  P     -122.690     559.267    -107.361
  C     -123.746     559.348    -105.002
  O     -123.092     558.550    -105.976
  O     -124.083     559.363    -108.150
  O     -122.038     560.598    -107.238
  H     -124.245     560.293    -108.411
  H     -123.956     558.754    -104.137
  H     -124.662     559.725    -105.406
  H     -123.113     560.166    -104.728

 6  7  8  9  10  11  12  13  14  15  25  28  32  33  34  35 0
 6-311+G(2d,p)
 ****
 36  39  40 0
 6-311+G(2d,p)
 ****
 1  2  3  4  5  16  17  18  19  20  21  22  23  24 0
 3-21G
 ****
 26  27  29  30  31  37  38  41  42  43  44  45  46  47  48 0
 3-21G
 ****


