%nproc=1
%NoSave
%Mem=1900MB
#P OB98/GEN NMR

erre ene a

0 1
  C     -446.755    -252.587    -489.419
  O     -446.195    -253.611    -488.591
  P     -444.648    -253.643    -488.197
  C     -445.022    -254.604    -485.839
  O     -444.498    -253.517    -486.607
  C     -446.212    -254.180    -484.966
  O     -447.282    -253.647    -485.774
  C     -446.810    -255.302    -484.132
  O     -446.034    -255.570    -482.985
  C     -448.210    -254.722    -483.840
  O     -448.151    -253.807    -482.725
  C     -448.532    -253.991    -485.148
  N     -453.088    -256.211    -485.789
  C     -452.581    -255.466    -484.786
  N     -451.350    -254.921    -484.676
  C     -450.629    -255.179    -485.777
  C     -451.008    -255.918    -486.900
  C     -452.313    -256.464    -486.868
  N     -452.826    -257.233    -487.906
  N     -449.987    -255.998    -487.807
  C     -449.006    -255.286    -487.284
  N     -449.354    -254.772    -486.059
  O     -443.794    -252.680    -488.956
  O     -444.177    -255.149    -488.501
  H     -447.573    -253.061    -482.982
  H     -443.226    -255.164    -488.723
  H     -453.248    -255.308    -483.947
  H     -448.052    -255.116    -487.739
  H     -449.058    -253.051    -484.955
  H     -448.935    -255.496    -483.566
  H     -446.926    -256.195    -484.729
  H     -445.845    -253.363    -484.308
  H     -444.219    -255.003    -485.205
  H     -453.742    -257.609    -487.793
  H     -452.224    -257.453    -488.691
  H     -445.334    -255.402    -486.545
  P     -444.741    -256.521    -483.099
  C     -443.217    -255.751    -481.176
  O     -443.472    -255.667    -482.551
  O     -444.550    -257.178    -484.423
  O     -444.961    -257.566    -481.918
  H     -444.522    -258.431    -482.174
  H     -443.893    -255.080    -480.631
  H     -442.193    -255.425    -480.984
  H     -443.341    -256.767    -480.803
  H     -447.802    -252.766    -489.549
  H     -446.270    -252.595    -490.373
  H     -446.612    -251.634    -488.954

 3  4  5  6  7  8  9  10  11  12  22  25  29  30  31  32 0
 6-311+G(2d,p)
 ****
 33  36  37 0
 6-311+G(2d,p)
 ****
 1  2  13  14  15  16  17  18  19  20  21  23  24  26 0
 3-21G
 ****
 27  28  34  35  38  39  40  41  42  43  44  45  46  47  48 0
 3-21G
 ****


