%nproc=1
%NoSave
%Mem=1900MB
#P OB98/GEN NMR

erre ene a

0 1
  C     -418.281    -420.834    -410.171
  O     -418.064    -420.903    -411.591
  P     -416.654    -421.292    -412.253
  C     -417.293    -423.359    -413.680
  O     -416.944    -421.978    -413.676
  C     -418.439    -423.615    -414.667
  O     -419.704    -423.222    -414.077
  C     -418.383    -422.835    -415.971
  O     -417.375    -423.330    -416.846
  C     -419.805    -422.998    -416.493
  O     -419.964    -424.229    -417.204
  C     -420.627    -423.033    -415.187
  N     -421.432    -421.836    -414.989
  C     -422.541    -421.684    -415.827
  O     -422.753    -422.484    -416.735
  N     -423.369    -420.600    -415.625
  C     -423.058    -419.705    -414.741
  N     -423.926    -418.671    -414.577
  C     -421.821    -419.764    -413.933
  C     -421.063    -420.842    -414.108
  O     -415.775    -422.117    -411.361
  O     -415.954    -419.896    -412.623
  H     -414.991    -420.007    -412.631
  H     -420.777    -424.151    -417.733
  H     -421.581    -418.967    -413.241
  H     -420.145    -420.967    -413.537
  H     -421.281    -423.914    -415.180
  H     -420.084    -422.189    -417.174
  H     -418.176    -421.779    -415.744
  H     -418.473    -424.705    -414.867
  H     -424.771    -418.666    -415.144
  H     -417.629    -423.634    -412.675
  H     -423.786    -417.924    -413.900
  H     -416.416    -423.952    -413.937
  P     -417.002    -422.411    -418.107
  C     -414.461    -422.152    -417.599
  O     -415.462    -422.673    -418.466
  O     -417.006    -420.923    -417.518
  O     -417.938    -422.542    -419.273
  H     -417.398    -420.317    -418.168
  H     -413.580    -422.780    -417.671
  H     -414.809    -422.122    -416.559
  H     -414.205    -421.139    -417.926
  H     -419.296    -420.556    -409.978
  H     -417.624    -420.105    -409.745
  H     -418.084    -421.790    -409.733

 3  4  5  6  7  8  9  10  11  12  13  24  27  28  29  30  32 0
 6-311+G(2d,p)
 ****
 34  35 0
 6-311+G(2d,p)
 ****
 1  2  14  15  16  17  18  19  20  21  22  23  25  26 0
 3-21G
 ****
 31  33  36  37  38  39  40  41  42  43  44  45  46 0
 3-21G
 ****


