%nproc=1
%NoSave
%Mem=1900MB
#P OB98/GEN NMR

erre ene a

0 1
  C      -18.430     -73.403     -67.607
  O      -18.959     -74.400     -68.455
  H      -18.620     -73.691     -66.570
  H      -18.921     -72.445     -67.797
  H      -17.351     -73.303     -67.750
  P      -18.701     -74.291     -70.033
  C      -21.227     -73.893     -70.350
  O      -19.913     -73.438     -70.644
  C      -22.220     -73.287     -71.336
  O      -23.538     -73.840     -71.126
  C      -22.378     -71.776     -71.203
  O      -21.270     -71.102     -71.765
  C      -23.699     -71.569     -71.928
  O      -23.515     -71.575     -73.352
  C      -24.497     -72.817     -71.479
  N      -25.408     -72.540     -70.367
  C      -26.536     -71.785     -70.671
  O      -26.778     -71.358     -71.797
  N      -27.361     -71.495     -69.615
  C      -27.120     -71.803     -68.308
  O      -27.768     -71.338     -67.374
  C      -25.955     -72.664     -68.058
  C      -25.155     -72.976     -69.080
  O      -18.417     -75.577     -70.734
  O      -17.463     -73.279     -70.141
  H      -16.644     -73.788     -70.295
  H      -23.257     -72.485     -73.593
  H      -28.156     -70.907     -69.816
  H      -25.766     -72.985     -67.042
  H      -24.274     -73.585     -68.914
  H      -25.091     -73.213     -72.314
  H      -24.171     -70.619     -71.670
  H      -22.507     -71.503     -70.149
  H      -21.900     -73.555     -72.353
  H      -21.485     -73.578     -69.333
  H      -21.246     -74.987     -70.399
  P      -20.493     -69.965     -70.951
  C      -22.347     -68.222     -71.262
  O      -21.582     -68.969     -70.326
  O      -19.395     -69.288     -71.702
  O      -19.919     -70.725     -69.662
  H      -18.958     -70.562     -69.597
  H      -23.038     -67.595     -70.738
  H      -22.886     -68.893     -71.898
  H      -21.693     -67.616     -71.854

 6  7  8  9  10  11  12  13  14  15  16  27  31  32  33  34  35 0
 6-311+G(2d,p)
 ****
 36  37 0
 6-311+G(2d,p)
 ****
 1  2  3  4  5  17  18  19  20  21  22  23  24  25 0
 3-21G
 ****
 26  28  29  30  38  39  40  41  42  43  44  45 0
 3-21G
 ****


