%nproc=1
%NoSave
%Mem=1900MB
#P OB98/GEN NMR

erre ene a

0 1
  C      667.916    -503.112    -712.398
  O      667.077    -504.234    -712.592
  H      668.824    -503.242    -712.990
  H      668.190    -503.032    -711.348
  H      667.421    -502.192    -712.728
  P      665.558    -504.166    -712.088
  C      664.545    -504.225    -714.466
  O      664.675    -504.891    -713.216
  C      664.725    -505.196    -715.631
  O      666.142    -505.530    -715.748
  C      663.958    -506.527    -715.467
  O      663.602    -506.975    -716.767
  C      665.022    -507.420    -714.858
  O      664.679    -508.784    -714.980
  C      666.265    -506.968    -715.634
  N      667.516    -507.374    -714.996
  C      668.643    -507.429    -715.794
  O      668.622    -507.184    -717.021
  N      669.802    -507.831    -715.190
  C      669.934    -508.225    -713.891
  O      670.981    -508.597    -713.406
  C      668.682    -508.184    -713.083
  C      667.550    -507.759    -713.669
  O      665.067    -502.817    -711.680
  O      665.501    -505.219    -710.870
  H      663.704    -508.904    -714.843
  H      664.832    -504.936    -710.222
  H      670.628    -507.873    -715.771
  H      668.745    -508.502    -712.052
  H      666.626    -507.741    -713.100
  H      666.255    -507.383    -716.653
  H      665.145    -507.218    -713.783
  H      663.067    -506.431    -714.833
  H      664.435    -504.692    -716.558
  H      665.318    -503.444    -714.495
  H      663.554    -503.742    -714.529
  P      662.627    -508.235    -717.011
  C      660.685    -506.959    -718.151
  O      661.715    -507.941    -718.305
  O      661.844    -508.644    -715.793
  O      663.588    -509.420    -717.503
  H      663.200    -510.283    -717.236
  H      660.152    -506.854    -719.073
  H      661.124    -506.021    -717.884
  H      660.009    -507.269    -717.381

 6  7  8  9  10  11  12  13  14  15  16  26  31  32  33  34  35 0
 6-311+G(2d,p)
 ****
 36  37 0
 6-311+G(2d,p)
 ****
 1  2  3  4  5  17  18  19  20  21  22  23  24  25 0
 3-21G
 ****
 27  28  29  30  38  39  40  41  42  43  44  45 0
 3-21G
 ****


