%nproc=1
%NoSave
%Mem=1900MB
#P OB98/GEN NMR

erre ene a

0 1
  C      227.306     619.781     576.071
  O      226.194     619.338     575.312
  H      228.030     618.959     576.132
  H      226.994     620.042     577.082
  H      227.780     620.634     575.585
  P      224.945     620.326     575.131
  C      226.021     621.222     572.956
  O      225.453     621.541     574.222
  C      224.987     621.394     571.844
  O      224.652     622.794     571.689
  C      225.456     620.923     570.472
  O      225.439     619.519     570.390
  C      224.454     621.642     569.574
  O      223.195     620.959     569.564
  C      224.331     623.009     570.281
  N      225.184     624.056     569.715
  C      224.858     624.474     568.425
  O      223.913     623.959     567.821
  N      225.637     625.445     567.835
  C      226.607     625.986     568.499
  N      227.345     626.954     567.871
  C      226.959     625.595     569.889
  C      226.224     624.630     570.420
  O      224.254     620.742     576.390
  O      223.955     619.524     574.156
  H      222.817     621.093     570.462
  H      223.300     619.025     574.669
  H      227.779     626.084     570.411
  H      226.408     624.288     571.430
  H      223.287     623.366     570.258
  H      224.802     621.712     568.534
  H      226.459     621.320     570.255
  H      224.063     620.875     572.148
  H      227.049     627.201     566.926
  H      226.349     620.168     573.007
  H      228.009     627.556     568.333
  H      226.896     621.842     572.755
  P      226.296     618.723     569.289
  C      228.260     618.670     570.950
  O      227.848     619.022     569.645
  O      225.918     619.008     567.870
  O      226.132     617.187     569.717
  H      225.242     616.852     569.435
  H      229.295     618.910     571.074
  H      228.117     617.620     571.098
  H      227.680     619.214     571.666

 6  7  8  9  10  11  12  13  14  15  16  26  30  31  32  33  35 0
 6-311+G(2d,p)
 ****
 37  38 0
 6-311+G(2d,p)
 ****
 1  2  3  4  5  17  18  19  20  21  22  23  24  25 0
 3-21G
 ****
 27  28  29  34  36  39  40  41  42  43  44  45  46 0
 3-21G
 ****


