%nproc=1
%NoSave
%Mem=1900MB
#P OB98/GEN NMR

erre ene a

0 1
  C      320.720    -248.060    -382.348
  O      319.592    -248.786    -381.906
  H      320.874    -248.260    -383.410
  H      321.602    -248.391    -381.796
  H      320.575    -246.985    -382.208
  P      318.940    -248.351    -380.506
  C      317.907    -246.166    -381.453
  O      317.669    -247.432    -380.857
  C      316.727    -245.227    -381.202
  O      317.063    -243.908    -381.730
  C      315.413    -245.677    -381.864
  O      314.322    -245.344    -380.998
  C      315.335    -244.784    -383.090
  O      314.001    -244.634    -383.566
  C      315.949    -243.499    -382.546
  N      314.171    -240.780    -386.370
  C      313.511    -241.420    -385.341
  N      312.162    -241.382    -385.359
  N      314.123    -242.048    -384.371
  C      315.474    -241.991    -384.461
  C      316.245    -241.397    -385.431
  C      315.556    -240.720    -386.508
  O      316.084    -240.151    -387.459
  N      317.579    -241.616    -385.197
  C      317.609    -242.360    -384.103
  N      316.356    -242.612    -383.621
  O      320.012    -247.308    -379.931
  O      318.679    -249.464    -379.549
  H      313.460    -244.262    -382.843
  H      320.628    -247.765    -379.331
  H      313.653    -240.324    -387.102
  H      318.503    -242.750    -383.637
  H      315.250    -242.934    -381.914
  H      315.946    -245.203    -383.899
  H      311.619    -240.892    -386.055
  H      315.382    -246.742    -382.108
  H      311.664    -241.814    -384.589
  H      316.597    -245.113    -380.119
  H      318.035    -246.296    -382.532
  H      318.828    -245.741    -381.040
  P      313.350    -246.527    -380.521
  C      314.493    -248.053    -378.749
  O      313.702    -246.901    -379.001
  O      313.888    -247.790    -381.344
  O      311.905    -246.273    -380.798
  H      313.147    -248.375    -381.576
  H      314.637    -248.163    -377.694
  H      315.443    -247.945    -379.229
  H      313.995    -248.919    -379.133

 6  7  8  9  10  11  12  13  14  15  26  29  33  34 0
 6-311+G(2d,p)
 ****
 36  38  39  40  41 0
 6-311+G(2d,p)
 ****
 1  2  3  4  5  16  17  18  19  20  21  22  23  24  25 0
 3-21G
 ****
 27  28  30  31  32  35  37  42  43  44  45  46  47 0
 3-21G
 ****
 48  49 0
 3-21G
 ****


