%nproc=1
%NoSave
%Mem=1900MB
#P OB98/GEN NMR

erre ene a

0 1
  C     -194.562     886.223    -152.510
  O     -195.520     885.535    -153.287
  H     -193.733     885.546    -152.288
  H     -195.008     886.556    -151.571
  H     -194.176     887.084    -153.064
  P     -196.828     886.356    -153.722
  C     -197.199     885.945    -156.257
  O     -197.495     885.529    -154.932
  C     -195.846     885.397    -156.704
  O     -195.807     883.969    -156.435
  C     -195.556     885.599    -158.199
  O     -194.163     885.898    -158.358
  C     -195.842     884.231    -158.793
  O     -195.162     884.029    -160.027
  C     -195.375     883.328    -157.655
  N     -194.145     878.531    -158.563
  C     -193.349     879.659    -158.466
  N     -192.017     879.490    -158.651
  N     -193.817     880.854    -158.225
  C     -195.160     880.880    -158.041
  C     -196.056     879.834    -158.113
  C     -195.525     878.519    -158.406
  O     -196.176     877.490    -158.522
  N     -197.341     880.275    -157.901
  C     -197.215     881.572    -157.692
  N     -195.918     881.986    -157.767
  O     -196.230     887.653    -154.448
  O     -197.762     886.711    -152.615
  H     -195.338     884.808    -160.596
  H     -196.828     888.415    -154.343
  H     -193.729     877.642    -158.764
  H     -198.034     882.253    -157.493
  H     -194.283     883.228    -157.622
  H     -196.916     884.113    -158.967
  H     -191.586     878.593    -158.810
  H     -196.157     886.388    -158.658
  H     -191.421     880.303    -158.574
  H     -195.064     885.853    -156.083
  H     -197.179     887.041    -156.291
  H     -197.987     885.587    -156.928
  P     -193.751     886.933    -159.508
  C     -192.188     888.828    -158.671
  O     -192.286     887.505    -159.191
  O     -194.714     888.183    -159.223
  O     -193.945     886.407    -160.896
  H     -195.399     888.231    -159.908
  H     -191.159     889.072    -158.509
  H     -192.718     888.887    -157.744
  H     -192.613     889.518    -159.369

 6  7  8  9  10  11  12  13  14  15  26  29  33  34 0
 6-311+G(2d,p)
 ****
 36  38  39  40  41 0
 6-311+G(2d,p)
 ****
 1  2  3  4  5  16  17  18  19  20  21  22  23  24  25 0
 3-21G
 ****
 27  28  30  31  32  35  37  42  43  44  45  46  47 0
 3-21G
 ****
 48  49 0
 3-21G
 ****


