%nproc=1
%NoSave
%Mem=1900MB
#P OB98/GEN NMR

erre ene a

0 1
  C     -698.102     247.628    -172.199
  O     -699.443     247.694    -172.648
  H     -698.005     246.783    -171.515
  H     -697.832     248.546    -171.672
  H     -697.432     247.471    -173.049
  P     -699.807     248.898    -173.645
  C     -700.022     250.208    -171.419
  O     -699.575     250.223    -172.768
  C     -701.152     251.220    -171.216
  O     -700.802     252.481    -171.813
  C     -702.480     250.810    -171.835
  O     -703.187     249.939    -170.965
  C     -703.173     252.160    -171.954
  O     -703.739     252.522    -170.680
  C     -702.010     253.106    -172.301
  N     -703.170     256.358    -176.096
  C     -703.638     256.258    -174.834
  N     -703.328     255.337    -173.902
  C     -702.423     254.460    -174.372
  C     -701.860     254.437    -175.640
  C     -702.263     255.450    -176.528
  N     -701.787     255.552    -177.813
  N     -700.979     253.389    -175.767
  C     -700.961     252.824    -174.579
  N     -701.845     253.409    -173.711
  O     -701.122     248.787    -174.339
  O     -698.527     248.894    -174.608
  H     -703.957     253.473    -170.724
  H     -697.715     248.745    -174.094
  H     -704.360     257.010    -174.539
  H     -700.318     252.001    -174.294
  H     -702.113     254.073    -171.786
  H     -703.992     252.153    -172.674
  H     -702.352     250.381    -172.836
  H     -701.258     251.386    -170.136
  H     -699.190     250.439    -170.743
  H     -702.274     256.185    -178.436
  H     -701.215     254.803    -178.168
  H     -700.378     249.196    -171.199
  P     -703.991     248.671    -171.536
  C     -706.474     249.218    -171.924
  O     -705.151     249.297    -172.452
  O     -704.437     247.701    -170.492
  O     -703.001     248.027    -172.607
  H     -703.286     247.109    -172.816
  H     -707.160     249.663    -172.614
  H     -706.517     249.740    -170.991
  H     -706.736     248.192    -171.771

 6  7  8  9  10  11  12  13  14  15  25  28  32  33  34  35 0
 6-311+G(2d,p)
 ****
 36  39  40 0
 6-311+G(2d,p)
 ****
 1  2  3  4  5  16  17  18  19  20  21  22  23  24 0
 3-21G
 ****
 26  27  29  30  31  37  38  41  42  43  44  45  46  47 0
 3-21G
 ****
 48 0
 3-21G
 ****


