%nproc=1
%NoSave
%Mem=1900MB
#P OB98/GEN NMR

erre ene a

0 1
  C       46.516     655.765     245.023
  O       46.800     656.198     243.707
  H       47.315     656.098     245.682
  H       46.455     654.674     245.060
  H       45.572     656.201     245.362
  P       45.765     655.759     242.563
  C       46.768     653.434     242.073
  O       45.699     654.158     242.677
  C       46.595     651.934     242.308
  O       45.372     651.501     241.650
  C       47.744     651.090     241.743
  O       47.974     649.972     242.609
  C       47.188     650.582     240.427
  O       47.838     649.394     239.980
  C       45.707     650.409     240.772
  N       44.740     647.966     236.416
  C       45.488     647.636     237.490
  N       45.673     648.344     238.627
  C       44.939     649.469     238.610
  C       44.126     649.936     237.590
  C       44.049     649.128     236.440
  N       43.315     649.468     235.326
  N       43.581     651.158     237.929
  C       44.038     651.417     239.137
  N       44.878     650.435     239.580
  O       46.045     656.290     241.198
  O       44.362     656.206     243.198
  H       47.359     649.046     239.204
  H       44.292     655.929     244.128
  H       46.017     646.691     237.430
  H       43.811     652.300     239.728
  H       45.504     649.466     241.293
  H       47.315     651.344     239.649
  H       48.670     651.647     241.616
  H       46.458     651.757     243.384
  H       47.729     653.758     242.490
  H       43.312     648.829     234.545
  H       42.788     650.327     235.320
  H       46.760     653.654     240.998
  P       49.049     650.122     243.790
  C       50.707     648.278     243.082
  O       50.489     649.676     243.239
  O       48.664     649.514     245.096
  O       49.211     651.713     243.926
  H       49.249     651.948     244.877
  H       51.697     648.111     242.711
  H       49.995     647.882     242.389
  H       50.594     647.791     244.028

 6  7  8  9  10  11  12  13  14  15  25  28  32  33  34  35 0
 6-311+G(2d,p)
 ****
 36  39  40 0
 6-311+G(2d,p)
 ****
 1  2  3  4  5  16  17  18  19  20  21  22  23  24 0
 3-21G
 ****
 26  27  29  30  31  37  38  41  42  43  44  45  46  47 0
 3-21G
 ****
 48 0
 3-21G
 ****


