%nproc=1
%NoSave
%Mem=1900MB
#P OB98/GEN NMR

erre ene a

0 1
  C     -896.010    -315.781    -386.491
  O     -895.450    -317.099    -386.595
  P     -896.320    -318.335    -386.046
  C     -896.070    -319.475    -388.381
  O     -896.940    -319.064    -387.328
  C     -895.910    -321.010    -388.371
  O     -897.200    -321.613    -388.544
  C     -895.040    -321.541    -389.492
  O     -893.660    -321.377    -389.209
  C     -895.470    -322.982    -389.583
  O     -894.800    -323.786    -388.616
  C     -896.990    -322.901    -389.255
  N     -897.840    -323.018    -390.430
  C     -897.850    -324.235    -391.053
  O     -897.190    -325.187    -390.674
  N     -898.660    -324.340    -392.165
  C     -899.370    -323.311    -392.745
  O     -900.000    -323.465    -393.778
  C     -899.290    -321.999    -392.062
  C     -898.540    -321.911    -390.945
  O     -897.610    -317.638    -385.375
  O     -895.610    -319.214    -385.090
  H     -894.950    -324.725    -388.898
  H     -897.890    -318.152    -384.598
  H     -898.690    -325.239    -392.628
  H     -899.840    -321.200    -392.475
  H     -898.460    -320.973    -390.417
  H     -897.250    -323.677    -388.534
  H     -895.270    -323.436    -390.561
  H     -895.310    -321.019    -390.456
  H     -895.490    -321.293    -387.398
  H     -895.100    -319.019    -388.235
  H     -896.450    -319.127    -389.340
  P     -892.640    -321.309    -390.458
  C     -892.020    -318.821    -389.924
  O     -892.560    -319.724    -390.837
  O     -893.560    -321.964    -391.603
  O     -891.340    -322.008    -390.204
  H     -894.500    -321.747    -391.493
  H     -891.190    -319.255    -389.342
  H     -892.810    -318.489    -389.222
  H     -891.620    -317.968    -390.486
  H     -895.321    -315.068    -386.894
  H     -896.198    -315.553    -385.462
  H     -896.928    -315.739    -387.039

 3  4  5  6  7  8  9  10  11  12  13  23  28  29  30  31  32 0
 6-311+G(2d,p)
 ****
 33  34 0
 6-311+G(2d,p)
 ****
 1  2  14  15  16  17  18  19  20  21  22  24  25  26 0
 3-21G
 ****
 27  35  36  37  38  39  40  41  42  43  44  45 0
 3-21G
 ****


