%nproc=1
%NoSave
%Mem=1900MB
#P OB98/GEN NMR

erre ene a

0 1
  C     -455.216       3.167     -12.794
  O     -454.316       4.226     -13.050
  H     -454.784       2.519     -12.026
  H     -455.366       2.582     -13.706
  H     -456.179       3.544     -12.435
  P     -454.840       5.506     -13.858
  C     -455.897       7.499     -12.602
  O     -454.709       6.772     -12.876
  C     -455.574       8.862     -11.967
  O     -454.383       8.741     -11.150
  C     -455.269       9.902     -13.052
  O     -455.600      11.225     -12.636
  C     -453.761       9.788     -13.210
  O     -453.171      10.954     -13.782
  C     -453.336       9.511     -11.770
  N     -448.565       8.970     -13.482
  C     -449.581       9.759     -13.975
  N     -449.298      10.483     -15.082
  N     -450.776       9.821     -13.437
  C     -450.935       8.988     -12.382
  C     -450.014       8.137     -11.818
  C     -448.684       8.109     -12.395
  O     -447.746       7.411     -12.011
  N     -450.549       7.434     -10.767
  C     -451.796       7.850     -10.700
  N     -452.076       8.802     -11.652
  O     -456.429       5.285     -13.930
  O     -454.249       5.698     -15.223
  H     -452.209      10.799     -13.831
  H     -456.802       5.758     -14.696
  H     -447.657       8.969     -13.922
  H     -452.533       7.496      -9.987
  H     -453.231      10.459     -11.209
  H     -453.546       8.950     -13.886
  H     -448.465      10.336     -15.626
  H     -455.790       9.683     -13.984
  H     -450.100      10.830     -15.617
  H     -456.388       9.170     -11.301
  H     -456.496       6.896     -11.913
  H     -456.482       7.633     -13.516
  P     -456.700      12.017     -13.488
  C     -459.064      11.255     -12.625
  O     -458.000      12.196     -12.568
  O     -457.147      10.961     -14.598
  O     -456.194      13.292     -14.088
  H     -456.765      11.195     -15.466
  H     -459.835      11.546     -11.942
  H     -458.698      10.286     -12.358
  H     -459.461      11.225     -13.618

 6  7  8  9  10  11  12  13  14  15  26  29  33  34 0
 6-311+G(2d,p)
 ****
 36  38  39  40  41 0
 6-311+G(2d,p)
 ****
 1  2  3  4  5  16  17  18  19  20  21  22  23  24  25 0
 3-21G
 ****
 27  28  30  31  32  35  37  42  43  44  45  46  47 0
 3-21G
 ****
 48  49 0
 3-21G
 ****


