%nproc=1
%NoSave
%Mem=1900MB
#P OB98/GEN NMR

erre ene a

0 1
  C     1386.983    -491.141     267.801
  O     1388.010    -490.242     267.418
  H     1386.924    -491.936     267.053
  H     1386.031    -490.619     267.844
  H     1387.231    -491.589     268.770
  P     1388.244    -488.971     268.377
  C     1386.591    -487.362     269.545
  O     1386.776    -488.323     268.536
  C     1385.110    -486.992     269.686
  O     1384.337    -488.162     269.988
  C     1384.805    -485.976     270.762
  O     1385.032    -484.655     270.295
  C     1383.313    -486.235     271.005
  O     1382.555    -485.562     269.974
  C     1383.209    -487.750     270.816
  N     1380.419    -489.591     274.725
  C     1380.124    -488.687     273.762
  N     1380.926    -488.195     272.778
  C     1382.159    -488.754     272.866
  C     1382.598    -489.691     273.785
  C     1381.674    -490.115     274.745
  N     1381.967    -491.020     275.745
  N     1383.932    -490.008     273.587
  C     1384.262    -489.345     272.492
  N     1383.238    -488.543     272.041
  O     1389.334    -488.046     267.964
  O     1388.452    -489.688     269.789
  H     1382.934    -485.873     269.119
  H     1387.832    -490.425     269.893
  H     1379.103    -488.311     273.743
  H     1385.211    -489.422     271.966
  H     1382.296    -488.048     270.274
  H     1382.976    -485.859     271.972
  H     1385.355    -486.187     271.707
  H     1384.777    -486.626     268.704
  H     1387.183    -486.459     269.353
  H     1381.300    -491.130     276.489
  H     1382.951    -491.302     275.852
  H     1386.953    -487.803     270.504
  P     1385.227    -483.419     271.317
  C     1384.621    -483.382     273.812
  O     1384.179    -483.733     272.516
  O     1385.115    -482.079     270.674
  O     1386.652    -483.697     271.997
  H     1386.948    -482.866     272.432
  H     1383.863    -483.628     274.526
  H     1384.819    -482.331     273.849
  H     1385.516    -483.922     274.042

 6  7  8  9  10  11  12  13  14  15  25  28  32  33  34  35 0
 6-311+G(2d,p)
 ****
 36  39  40 0
 6-311+G(2d,p)
 ****
 1  2  3  4  5  16  17  18  19  20  21  22  23  24 0
 3-21G
 ****
 26  27  29  30  31  37  38  41  42  43  44  45  46  47 0
 3-21G
 ****
 48 0
 3-21G
 ****


