%nproc=1
%NoSave
%Mem=1900MB
#P OB98/GEN NMR

erre ene a

0 1
  C      492.363     411.098    -720.445
  O      491.013     411.435    -720.181
  H      493.003     411.696    -719.779
  H      492.629     411.330    -721.478
  H      492.539     410.044    -720.240
  P      489.888     410.897    -721.197
  C      488.466     410.054    -719.206
  O      489.145     409.704    -720.417
  C      486.985     410.317    -719.463
  O      486.344     409.123    -719.963
  C      486.203     410.694    -718.214
  O      486.528     411.968    -717.695
  C      484.766     410.393    -718.622
  O      484.133     411.456    -719.308
  C      484.955     409.193    -719.586
  N      484.489     407.937    -718.996
  C      483.112     407.810    -718.850
  O      482.315     408.698    -719.165
  N      482.671     406.646    -718.287
  C      483.468     405.635    -717.819
  O      483.015     404.632    -717.279
  C      484.917     405.837    -717.980
  C      485.353     406.967    -718.545
  O      490.380     410.509    -722.562
  O      488.798     412.060    -721.216
  H      483.172     411.235    -719.357
  H      488.198     411.970    -721.989
  H      481.679     406.529    -718.185
  H      485.581     405.057    -717.607
  H      486.427     407.127    -718.669
  H      484.396     409.351    -720.515
  H      484.145     410.158    -717.754
  H      486.456     409.974    -717.431
  H      486.904     411.096    -720.233
  H      488.939     410.969    -718.818
  H      488.599     409.253    -718.466
  P      486.672     412.273    -716.128
  C      489.252     412.538    -716.153
  O      488.146     411.813    -715.670
  O      485.500     411.930    -715.271
  O      486.814     413.879    -716.133
  H      486.385     414.223    -715.326
  H      490.154     412.114    -715.763
  H      489.173     413.559    -715.841
  H      489.269     412.492    -717.222

 6  7  8  9  10  11  12  13  14  15  16  26  31  32  33  34  35 0
 6-311+G(2d,p)
 ****
 36  37 0
 6-311+G(2d,p)
 ****
 1  2  3  4  5  17  18  19  20  21  22  23  24  25 0
 3-21G
 ****
 27  28  29  30  38  39  40  41  42  43  44  45 0
 3-21G
 ****


