%nproc=1
%NoSave
%Mem=1900MB
#P OB98/GEN NMR

erre ene a

0 1
  C      -81.472      81.842    -153.907
  O      -80.834      81.630    -152.663
  H      -82.416      81.289    -153.914
  H      -80.844      81.469    -154.723
  H      -81.686      82.903    -154.059
  P      -79.495      82.454    -152.330
  C      -77.211      82.777    -153.491
  O      -78.377      81.972    -153.376
  C      -76.023      81.912    -153.923
  O      -75.625      81.039    -152.843
  C      -76.326      81.000    -155.104
  O      -76.336      81.721    -156.320
  C      -75.202      79.981    -154.977
  O      -73.982      80.495    -155.533
  C      -75.092      79.834    -153.438
  N      -75.777      78.645    -152.930
  C      -75.134      77.425    -153.136
  O      -74.064      77.315    -153.739
  N      -75.784      76.321    -152.647
  C      -77.031      76.303    -152.094
  O      -77.607      75.275    -151.752
  C      -77.674      77.616    -151.924
  C      -77.026      78.709    -152.345
  O      -79.068      82.446    -150.901
  O      -79.833      83.938    -152.831
  H      -74.172      80.698    -156.467
  H      -80.009      84.508    -152.059
  H      -75.340      75.427    -152.795
  H      -78.658      77.645    -151.477
  H      -77.485      79.686    -152.233
  H      -74.035      79.780    -153.139
  H      -75.427      79.050    -155.493
  H      -77.286      80.488    -154.950
  H      -75.177      82.581    -154.147
  H      -76.994      83.229    -152.514
  H      -77.396      83.573    -154.219
  P      -77.322      81.281    -157.503
  C      -77.573      79.279    -159.104
  O      -76.723      79.949    -158.170
  O      -77.684      82.364    -158.472
  O      -78.625      80.751    -156.739
  H      -79.398      81.290    -156.995
  H      -77.074      78.411    -159.482
  H      -77.803      79.939    -159.914
  H      -78.478      78.985    -158.615

 6  7  8  9  10  11  12  13  14  15  16  26  31  32  33  34  35 0
 6-311+G(2d,p)
 ****
 36  37 0
 6-311+G(2d,p)
 ****
 1  2  3  4  5  17  18  19  20  21  22  23  24  25 0
 3-21G
 ****
 27  28  29  30  38  39  40  41  42  43  44  45 0
 3-21G
 ****


