%nproc=1
%NoSave
%Mem=1900MB
#P OB98/GEN NMR

erre ene a

0 1
  C      -86.262    -178.812     -13.139
  O      -85.468    -179.968     -12.944
  P      -83.881    -179.893     -13.148
  C      -83.272    -180.057     -10.623
  O      -83.264    -179.281     -11.802
  C      -82.145    -179.632      -9.672
  O      -82.341    -180.324      -8.416
  C      -80.741    -180.001     -10.138
  O      -79.799    -179.207      -9.412
  C      -80.637    -181.444      -9.697
  O      -79.285    -181.883      -9.605
  C      -81.427    -181.445      -8.364
  N      -82.170    -182.704      -8.177
  C      -81.417    -183.846      -7.919
  O      -80.196    -183.824      -7.771
  N      -82.105    -185.029      -7.923
  C      -83.433    -185.167      -8.201
  O      -83.961    -186.231      -8.501
  C      -84.210    -183.919      -8.225
  C      -83.549    -182.758      -8.238
  O      -83.717    -178.711     -14.215
  O      -83.248    -181.156     -13.618
  H      -78.818    -181.538     -10.401
  H      -83.635    -179.078     -15.114
  H      -81.538    -185.867      -7.881
  H      -85.287    -183.989      -8.293
  H      -84.094    -181.821      -8.308
  H      -80.760    -181.316      -7.503
  H      -81.141    -182.080     -10.434
  H      -80.580    -179.890     -11.214
  H      -82.219    -178.555      -9.480
  H      -83.176    -181.114     -10.887
  H      -84.233    -179.953     -10.106
  P      -78.248    -179.353      -9.790
  C      -78.842    -177.783     -11.733
  O      -78.117    -178.929     -11.330
  O      -77.604    -180.648      -9.424
  O      -77.572    -178.115      -9.025
  H      -76.614    -178.268      -8.935
  H      -78.313    -177.306     -12.562
  H      -78.943    -177.065     -10.916
  H      -79.835    -178.088     -12.073
  H      -87.290    -179.051     -12.960
  H      -86.147    -178.466     -14.145
  H      -85.950    -178.046     -12.460

 3  4  5  6  7  8  9  10  11  12  13  23  28  29  30  31  32 0
 6-311+G(2d,p)
 ****
 33  34 0
 6-311+G(2d,p)
 ****
 1  2  14  15  16  17  18  19  20  21  22  24  25  26  27 0
 3-21G
 ****
 35  36  37  38  39  40  41  42  43  44  45 0
 3-21G
 ****


