%nproc=1
%NoSave
%Mem=1900MB
#P OB98/GEN NMR

erre ene a

0 1
  C     1652.456    2119.533    -888.630
  O     1653.544    2119.564    -889.510
  P     1653.545    2118.536    -890.730
  C     1655.519    2120.086    -891.560
  O     1654.992    2118.792    -891.450
  C     1656.745    2120.093    -892.430
  O     1656.402    2119.469    -893.720
  C     1657.295    2121.447    -892.740
  O     1658.084    2121.992    -891.690
  C     1658.096    2121.208    -894.030
  O     1659.454    2120.741    -893.720
  C     1657.322    2120.054    -894.680
  N     1656.578    2120.464    -895.900
  C     1657.355    2121.061    -896.900
  O     1658.592    2121.154    -896.770
  N     1656.772    2121.488    -898.020
  C     1655.463    2121.405    -898.140
  N     1654.884    2121.863    -899.280
  C     1654.605    2120.845    -897.060
  C     1655.251    2120.408    -895.990
  O     1652.516    2119.243    -891.770
  O     1653.198    2117.132    -890.410
  H     1659.347    2119.830    -893.430
  H     1652.099    2118.591    -892.350
  H     1653.499    2120.778    -897.200
  H     1654.698    2119.976    -895.180
  H     1658.004    2119.241    -894.980
  H     1658.221    2122.087    -894.660
  H     1656.452    2122.179    -893.010
  H     1657.517    2119.455    -892.010
  H     1655.503    2122.269    -900.000
  H     1655.905    2120.378    -890.520
  H     1653.869    2121.816    -899.500
  H     1654.788    2120.807    -891.880
  P     1657.604    2123.354    -890.990
  C     1659.386    2123.305    -889.190
  O     1658.929    2123.938    -890.300
  O     1656.766    2122.872    -889.720
  O     1656.783    2124.318    -891.830
  H     1656.315    2123.577    -889.250
  H     1660.371    2123.624    -888.880
  H     1659.463    2122.210    -889.350
  H     1658.750    2123.448    -888.290
  H     1652.592    2120.272    -887.868
  H     1652.389    2118.565    -888.180
  H     1651.555    2119.739    -889.169

 3  4  5  6  7  8  9  10  11  12  13  21  23  27  28  29  30  32 0
 6-311+G(2d,p)
 ****
 34  35 0
 6-311+G(2d,p)
 ****
 1  2  14  15  16  17  18  19  20  22  24  25  26 0
 3-21G
 ****
 31  33  36  37  38  39  40  41  42  43  44  45  46 0
 3-21G
 ****


