%nproc=1
%NoSave
%Mem=1900MB
#P OB98/GEN NMR

erre ene a

0 1
  C      536.982     357.048     -39.177
  O      536.272     358.178     -39.650
  P      536.745     359.626     -39.137
  C      535.475     360.014     -36.900
  O      535.516     360.233     -38.302
  C      534.479     360.968     -36.247
  O      534.826     362.339     -36.528
  C      533.048     360.806     -36.738
  O      532.376     359.729     -36.104
  C      532.442     362.135     -36.309
  O      532.108     362.096     -34.910
  C      533.599     363.110     -36.559
  N      533.812     367.610     -38.858
  C      534.168     367.256     -37.571
  N      534.583     368.261     -36.770
  N      534.125     366.035     -37.115
  C      533.681     365.137     -38.030
  C      533.301     365.365     -39.334
  C      533.344     366.724     -39.822
  O      532.993     367.109     -40.934
  N      532.920     364.206     -39.952
  C      533.068     363.275     -39.029
  N      533.484     363.797     -37.833
  O      536.755     360.506     -40.473
  O      538.066     359.638     -38.444
  H      532.953     362.083     -34.423
  H      537.279     361.317     -40.334
  H      533.859     368.569     -39.163
  H      532.867     362.221     -39.175
  H      533.671     363.868     -35.773
  H      531.521     362.374     -36.848
  H      534.581     369.234     -37.042
  H      533.008     360.725     -37.830
  H      534.792     368.044     -35.802
  H      534.533     360.820     -35.161
  H      536.470     360.178     -36.480
  H      535.186     358.973     -36.709
  P      531.855     358.545     -37.054
  C      530.383     360.222     -38.383
  O      530.437     359.039     -37.610
  O      531.479     357.389     -36.013
  O      532.842     358.090     -38.076
  H      531.547     356.514     -36.439
  H      529.413     360.263     -38.893
  H      531.173     360.236     -39.136
  H      530.475     361.094     -37.733
  H      536.560     356.160     -39.598
  H      536.913     357.004     -38.110
  H      538.010     357.126     -39.465

 3  4  5  6  7  8  9  10  11  12  23  26  30  31 0
 6-311+G(2d,p)
 ****
 33  35  36  37  38 0
 6-311+G(2d,p)
 ****
 1  2  13  14  15  16  17  18  19  20  21  22  24  25 0
 3-21G
 ****
 27  28  29  32  34  39  40  41  42  43  44  45  46  47  48  49 0
 3-21G
 ****


