%nproc=1
%NoSave
%Mem=1900MB
#P OB98/GEN NMR

erre ene a

0 1
  C      124.268      24.098       5.372
  O      125.464      23.413       5.679
  H      123.706      24.255       6.296
  H      123.657      23.501       4.691
  H      124.480      25.072       4.923
  P      126.569      23.233       4.532
  C      125.906      20.788       4.052
  O      126.020      22.106       3.533
  C      125.798      19.786       2.907
  O      124.670      20.109       2.067
  C      127.010      19.765       1.982
  O      128.094      19.084       2.585
  C      126.421      19.079       0.759
  O      126.373      17.656       0.945
  C      124.996      19.680       0.726
  N      124.859      20.782      -0.225
  C      123.781      20.714      -1.101
  O      122.993      19.770      -1.124
  N      123.648      21.766      -1.968
  C      124.517      22.811      -2.097
  O      124.381      23.703      -2.929
  C      125.656      22.813      -1.169
  C      125.773      21.816      -0.290
  O      127.969      23.024       5.005
  O      126.434      24.574       3.668
  H      127.300      17.348       0.973
  H      127.142      25.198       3.916
  H      122.880      21.728      -2.619
  H      126.369      23.623      -1.246
  H      126.610      21.797       0.399
  H      124.265      18.907       0.459
  H      127.003      19.259      -0.145
  H      127.295      20.787       1.708
  H      125.621      18.792       3.338
  H      125.005      20.731       4.674
  H      126.781      20.575       4.673
  P      129.533      19.772       2.694
  C      129.866      18.933       0.297
  O      130.068      20.014       1.198
  O      130.502      19.085       3.597
  O      129.216      21.254       3.208
  H      129.469      21.339       4.149
  H      130.255      19.193      -0.665
  H      128.819      18.728       0.215
  H      130.372      18.064       0.663

 6  7  8  9  10  11  12  13  14  15  16  26  31  32  33  34  35 0
 6-311+G(2d,p)
 ****
 36  37 0
 6-311+G(2d,p)
 ****
 1  2  3  4  5  17  18  19  20  21  22  23  24  25 0
 3-21G
 ****
 27  28  29  30  38  39  40  41  42  43  44  45 0
 3-21G
 ****


