%nproc=1
%NoSave
%Mem=1900MB
#P OB98/GEN NMR

erre ene a

0 1
  C       52.585     -87.360      53.839
  O       53.508     -86.516      54.514
  P       54.624     -87.217      55.432
  C       54.360     -86.922      58.001
  O       53.889     -87.560      56.818
  C       53.838     -85.491      58.082
  O       52.398     -85.484      58.040
  C       54.218     -84.753      59.357
  O       55.528     -84.214      59.295
  C       53.185     -83.635      59.358
  O       53.589     -82.595      58.448
  C       51.940     -84.350      58.824
  N       48.836     -82.890      62.615
  C       49.638     -82.186      61.790
  N       50.445     -82.649      60.811
  C       50.397     -83.991      60.752
  C       49.655     -84.842      61.554
  C       48.833     -84.241      62.520
  N       47.992     -84.958      63.340
  N       49.869     -86.154      61.198
  C       50.717     -86.101      60.191
  N       51.059     -84.813      59.878
  O       55.590     -86.001      55.816
  O       55.362     -88.338      54.784
  H       54.154     -81.979      58.955
  H       56.475     -86.339      56.053
  H       49.626     -81.108      61.926
  H       51.101     -86.959      59.657
  H       51.347     -83.713      58.156
  H       53.064     -83.168      60.341
  H       54.074     -85.385      60.241
  H       54.204     -84.948      57.199
  H       55.454     -86.902      57.983
  H       47.304     -84.446      63.873
  H       47.843     -85.938      63.132
  H       54.034     -87.499      58.870
  P       56.285     -83.989      60.695
  C       56.671     -81.422      60.817
  O       55.857     -82.523      61.176
  O       57.813     -83.826      60.259
  O       56.089     -85.095      61.677
  H       58.406     -84.080      60.990
  H       56.094     -80.503      60.946
  H       56.991     -81.493      59.774
  H       57.548     -81.382      61.468
  H       51.905     -86.762      53.270
  H       52.038     -87.936      54.556
  H       53.117     -88.018      53.183

 3  4  5  6  7  8  9  10  11  12  22  25  29  30  31  32 0
 6-311+G(2d,p)
 ****
 33  36  37 0
 6-311+G(2d,p)
 ****
 1  2  13  14  15  16  17  18  19  20  21  23  24  26 0
 3-21G
 ****
 27  28  34  35  38  39  40  41  42  43  44  45  46  47  48 0
 3-21G
 ****


