%nproc=1
%NoSave
%Mem=1900MB
#P OB98/GEN NMR

erre ene a

0 1
  C      189.229     -32.694     462.438
  O      189.810     -33.518     463.449
  P      189.160     -33.518     464.914
  C      190.252     -31.260     465.503
  O      190.087     -32.623     465.875
  C      190.493     -30.389     466.734
  O      189.367     -30.413     467.634
  C      191.680     -30.840     467.571
  O      192.903     -30.493     466.937
  C      191.407     -30.131     468.890
  O      191.857     -28.764     468.843
  C      189.864     -30.182     468.968
  N      189.370     -31.173     469.907
  C      188.616     -30.680     470.975
  O      188.433     -29.471     471.108
  N      188.097     -31.579     471.879
  C      188.320     -32.848     471.733
  N      187.778     -33.688     472.657
  C      189.123     -33.405     470.626
  C      189.618     -32.520     469.765
  O      188.786     -34.863     465.457
  O      187.861     -32.592     464.723
  H      191.537     -28.409     467.990
  H      187.172     -32.887     465.349
  H      189.275     -34.470     470.540
  H      190.221     -32.839     468.921
  H      189.471     -29.200     469.275
  H      191.926     -30.612     469.724
  H      191.635     -31.925     467.720
  H      190.647     -29.352     466.397
  H      187.245     -33.282     473.410
  H      189.362     -30.914     464.971
  H      187.856     -34.694     472.599
  H      191.089     -31.185     464.797
  P      193.468     -31.490     465.817
  C      195.295     -32.403     467.414
  O      194.998     -31.805     466.167
  O      193.573     -30.549     464.523
  O      192.608     -32.683     465.549
  H      193.384     -31.074     463.723
  H      196.300     -32.832     467.370
  H      194.586     -33.200     467.655
  H      195.271     -31.646     468.202
  H      189.777     -32.809     461.526
  H      189.263     -31.671     462.749
  H      188.211     -32.985     462.282

 3  4  5  6  7  8  9  10  11  12  13  23  27  28  29  30  32 0
 6-311+G(2d,p)
 ****
 34  35 0
 6-311+G(2d,p)
 ****
 1  2  14  15  16  17  18  19  20  21  22  24  25  26 0
 3-21G
 ****
 31  33  36  37  38  39  40  41  42  43  44  45  46 0
 3-21G
 ****


