%nproc=1
%NoSave
%Mem=1900MB
#P OB98/GEN NMR

erre ene a

0 1
  C      -45.892     582.036    -131.854
  O      -46.614     582.876    -132.728
  H      -46.581     581.298    -131.429
  H      -45.468     582.630    -131.040
  H      -45.092     581.506    -132.380
  P      -45.810     583.733    -133.815
  C      -45.796     586.282    -133.409
  O      -45.206     585.030    -133.085
  C      -47.063     586.541    -132.593
  O      -46.768     586.415    -131.184
  C      -47.624     587.953    -132.806
  O      -48.499     588.075    -133.911
  C      -48.355     588.202    -131.488
  O      -49.710     587.724    -131.548
  C      -47.543     587.393    -130.470
  N      -47.097     590.450    -126.394
  C      -48.248     589.951    -126.979
  N      -49.416     590.350    -126.429
  N      -48.235     589.152    -128.012
  C      -47.000     588.926    -128.518
  C      -45.790     589.381    -128.031
  C      -45.806     590.205    -126.841
  O      -44.820     590.658    -126.277
  N      -44.743     588.977    -128.830
  C      -45.332     588.350    -129.829
  N      -46.688     588.228    -129.647
  O      -46.971     584.360    -134.727
  O      -44.838     582.957    -134.653
  H      -50.101     587.819    -130.657
  H      -46.647     584.464    -135.643
  H      -47.168     591.036    -125.579
  H      -44.814     587.939    -130.691
  H      -48.200     586.836    -129.793
  H      -48.409     589.273    -131.272
  H      -49.484     591.028    -125.687
  H      -46.807     588.687    -132.886
  H      -50.278     590.155    -126.940
  H      -47.809     585.774    -132.838
  H      -46.038     586.243    -134.474
  H      -45.075     587.094    -133.261
  P      -48.851     589.512    -134.522
  C      -51.233     590.528    -134.054
  O      -49.941     590.213    -133.581
  O      -49.682     589.150    -135.840
  O      -47.680     590.388    -134.825
  H      -49.113     589.199    -136.630
  H      -51.798     590.988    -133.270
  H      -51.725     589.632    -134.370
  H      -51.155     591.203    -134.880

 6  7  8  9  10  11  12  13  14  15  26  29  33  34 0
 6-311+G(2d,p)
 ****
 36  38  39  40  41 0
 6-311+G(2d,p)
 ****
 1  2  3  4  5  16  17  18  19  20  21  22  23  24  25 0
 3-21G
 ****
 27  28  30  31  32  35  37  42  43  44  45  46  47 0
 3-21G
 ****
 48  49 0
 3-21G
 ****


