%nproc=1
%NoSave
%Mem=1900MB
#P OB98/GEN NMR

erre ene a

0 1
  C      540.181    -922.829    1138.345
  O      540.459    -924.212    1138.210
  H      539.446    -922.686    1139.141
  H      539.780    -922.436    1137.417
  H      541.097    -922.294    1138.616
  P      541.434    -924.655    1137.021
  C      542.520    -926.959    1136.477
  O      542.148    -926.010    1137.479
  C      543.711    -927.779    1136.976
  O      544.909    -926.974    1136.954
  C      543.564    -928.257    1138.413
  O      542.735    -929.388    1138.532
  C      545.018    -928.579    1138.743
  O      545.396    -929.891    1138.307
  C      545.790    -927.487    1137.961
  N      546.278    -926.446    1138.845
  C      547.572    -926.637    1139.364
  O      548.243    -927.627    1139.103
  N      548.025    -925.672    1140.205
  C      547.326    -924.568    1140.641
  O      547.776    -923.772    1141.456
  C      545.971    -924.426    1140.080
  C      545.515    -925.346    1139.227
  O      542.607    -923.561    1137.103
  O      540.806    -924.702    1135.671
  H      542.525    -922.926    1136.358
  H      546.321    -930.027    1138.635
  H      548.954    -925.799    1140.606
  H      545.376    -923.574    1140.392
  H      544.512    -925.271    1138.796
  H      546.658    -927.937    1137.448
  H      545.191    -928.526    1139.824
  H      543.226    -927.438    1139.052
  H      543.850    -928.633    1136.298
  H      542.818    -926.423    1135.568
  H      541.660    -927.592    1136.255
  P      541.684    -929.429    1139.768
  C      539.213    -930.304    1140.012
  O      540.331    -930.049    1139.169
  O      541.372    -927.870    1139.912
  O      542.230    -930.091    1140.988
  H      541.485    -927.378    1139.070
  H      538.414    -930.714    1139.430
  H      538.892    -929.389    1140.465
  H      539.493    -931.000    1140.775

 6  7  8  9  10  11  12  13  14  15  16  27  31  32  33  34  35 0
 6-311+G(2d,p)
 ****
 36  37 0
 6-311+G(2d,p)
 ****
 1  2  3  4  5  17  18  19  20  21  22  23  24  25 0
 3-21G
 ****
 26  28  29  30  38  39  40  41  42  43  44  45 0
 3-21G
 ****


