%nproc=1
%NoSave
%Mem=1900MB
#P OB98/GEN NMR

erre ene a

0 1
  C     -173.097    -124.701    -226.156
  O     -173.400    -125.439    -227.327
  P     -174.616    -124.944    -228.246
  C     -173.606    -125.905    -230.480
  O     -174.652    -125.924    -229.526
  C     -173.861    -126.947    -231.566
  O     -173.672    -128.280    -231.001
  C     -175.274    -126.913    -232.172
  O     -175.153    -127.250    -233.560
  C     -175.999    -128.004    -231.408
  O     -177.133    -128.495    -232.101
  C     -174.869    -129.039    -231.253
  N     -175.105    -130.000    -230.174
  C     -175.833    -131.147    -230.478
  O     -176.303    -131.388    -231.583
  N     -176.027    -132.016    -229.432
  C     -175.640    -131.823    -228.137
  O     -175.859    -132.625    -227.236
  C     -174.916    -130.570    -227.869
  C     -174.676    -129.740    -228.887
  O     -174.036    -123.575    -228.826
  O     -175.916    -124.824    -227.521
  H     -173.081    -123.607    -228.991
  H     -177.729    -127.742    -232.279
  H     -176.519    -132.875    -229.637
  H     -174.601    -130.370    -226.853
  H     -174.146    -128.807    -228.710
  H     -174.718    -129.576    -232.197
  H     -176.325    -127.625    -230.433
  H     -175.744    -125.926    -232.065
  H     -173.106    -126.822    -232.352
  H     -172.655    -126.127    -229.978
  H     -173.529    -124.902    -230.909
  P     -175.829    -126.267    -234.643
  C     -175.046    -127.850    -236.573
  O     -176.089    -127.131    -235.967
  O     -174.557    -125.371    -235.044
  O     -176.970    -125.455    -234.130
  H     -173.766    -125.903    -235.244
  H     -175.474    -128.616    -237.228
  H     -174.411    -128.351    -235.829
  H     -174.429    -127.183    -237.176
  H     -172.267    -125.153    -225.654
  H     -173.948    -124.697    -225.507
  H     -172.847    -123.695    -226.423

 3  4  5  6  7  8  9  10  11  12  13  24  28  29  30  31  32 0
 6-311+G(2d,p)
 ****
 33  34 0
 6-311+G(2d,p)
 ****
 1  2  14  15  16  17  18  19  20  21  22  23  25  26  27 0
 3-21G
 ****
 35  36  37  38  39  40  41  42  43  44  45 0
 3-21G
 ****


