%nproc=1
%NoSave
%Mem=1900MB
#P OB98/GEN NMR

erre ene a

0 1
  C      111.344      -9.862     -52.576
  O      112.755      -9.930     -52.543
  H      110.929     -10.805     -52.941
  H      110.975      -9.686     -51.562
  H      111.019      -9.039     -53.219
  P      113.496     -10.221     -53.936
  C      113.226      -7.690     -54.473
  O      113.042      -9.029     -54.911
  C      113.460      -6.792     -55.683
  O      112.399      -6.974     -56.649
  C      113.470      -5.305     -55.353
  O      114.722      -4.866     -54.854
  C      113.181      -4.709     -56.720
  O      114.369      -4.751     -57.530
  C      112.128      -5.686     -57.266
  N      107.740      -3.927     -59.230
  C      108.912      -4.273     -59.807
  N      110.025      -4.753     -59.216
  C      109.846      -4.876     -57.892
  C      108.708      -4.570     -57.165
  C      107.614      -4.067     -57.890
  N      106.430      -3.683     -57.303
  N      108.911      -4.809     -55.820
  C      110.144      -5.268     -55.743
  N      110.761      -5.296     -56.965
  O      112.714     -11.486     -54.527
  O      114.972     -10.429     -53.859
  H      114.661      -5.682     -57.560
  H      113.220     -11.886     -55.260
  H      108.962      -4.144     -60.884
  H      110.636      -5.581     -54.831
  H      112.197      -5.815     -58.352
  H      112.864      -3.665     -56.667
  H      112.655      -5.040     -54.669
  H      114.400      -7.096     -56.161
  H      114.096      -7.647     -53.809
  H      105.764      -3.198     -57.884
  H      106.378      -3.645     -56.296
  H      112.338      -7.361     -53.926
  P      114.732      -3.549     -53.934
  C      114.209      -4.947     -51.808
  O      113.813      -3.879     -52.661
  O      113.844      -2.519     -54.774
  O      116.093      -3.011     -53.634
  H      114.150      -1.603     -54.637
  H      113.504      -5.046     -51.010
  H      115.178      -4.740     -51.404
  H      114.243      -5.858     -52.369

 6  7  8  9  10  11  12  13  14  15  25  28  32  33  34  35 0
 6-311+G(2d,p)
 ****
 36  39  40 0
 6-311+G(2d,p)
 ****
 1  2  3  4  5  16  17  18  19  20  21  22  23  24 0
 3-21G
 ****
 26  27  29  30  31  37  38  41  42  43  44  45  46  47 0
 3-21G
 ****
 48 0
 3-21G
 ****


