%nproc=1
%NoSave
%Mem=1900MB
#P OB98/GEN NMR

erre ene a

0 1
  C     -108.162      12.249     373.665
  O     -107.802      12.382     375.027
  H     -107.250      12.110     373.075
  H     -108.667      13.159     373.325
  H     -108.814      11.382     373.523
  P     -109.005      12.415     376.091
  C     -109.061      15.022     376.416
  O     -108.778      13.743     376.960
  C     -107.986      16.032     376.823
  O     -106.831      15.853     375.960
  C     -108.434      17.495     376.704
  O     -107.826      18.241     377.762
  C     -107.839      17.935     375.373
  O     -107.683      19.347     375.300
  C     -106.532      17.123     375.343
  N     -106.009      16.957     373.988
  C     -105.280      18.030     373.457
  O     -105.122      19.058     374.123
  N     -104.793      17.929     372.181
  C     -105.059      16.884     371.467
  N     -104.567      16.860     370.198
  C     -105.862      15.747     371.966
  C     -106.289      15.845     373.228
  O     -108.596      11.232     377.089
  O     -110.365      12.271     375.489
  H     -108.573      19.762     375.298
  H     -107.654      11.239     377.332
  H     -106.067      14.899     371.330
  H     -106.878      15.052     373.678
  H     -105.762      17.619     375.953
  H     -108.494      17.625     374.550
  H     -109.521      17.608     376.742
  H     -107.657      15.805     377.846
  H     -104.042      17.672     369.888
  H     -110.037      15.374     376.766
  H     -104.759      16.120     369.537
  H     -109.103      14.926     375.328
  P     -108.757      19.011     378.816
  C     -107.618      21.335     378.672
  O     -107.918      20.203     379.487
  O     -109.512      18.149     379.769
  O     -109.777      19.812     377.861
  H     -110.666      19.760     378.264
  H     -107.059      22.047     379.242
  H     -108.529      21.784     378.336
  H     -107.041      21.023     377.827

 6  7  8  9  10  11  12  13  14  15  16  26  30  31  32  33  35 0
 6-311+G(2d,p)
 ****
 37  38 0
 6-311+G(2d,p)
 ****
 1  2  3  4  5  17  18  19  20  21  22  23  24  25 0
 3-21G
 ****
 27  28  29  34  36  39  40  41  42  43  44  45  46 0
 3-21G
 ****


