%nproc=1
%NoSave
%Mem=1900MB
#P OB98/GEN NMR

erre ene a

0 1
  C       84.289     -87.861      -8.511
  O       83.422     -87.983      -9.637
  P       82.252     -86.959      -9.998
  C       81.324     -86.025     -12.266
  O       81.935     -87.096     -11.561
  C       81.478     -86.140     -13.792
  O       82.889     -86.170     -14.134
  C       80.883     -87.457     -14.294
  O       79.494     -87.560     -14.544
  C       81.757     -87.849     -15.477
  O       81.223     -87.404     -16.725
  C       83.084     -87.142     -15.183
  N       86.704     -90.385     -16.783
  C       85.765     -89.690     -17.522
  N       85.753     -89.922     -18.852
  N       84.907     -88.857     -16.999
  C       84.969     -88.784     -15.651
  C       85.840     -89.437     -14.808
  C       86.828     -90.315     -15.402
  O       87.687     -90.945     -14.796
  N       85.591     -89.133     -13.494
  C       84.558     -88.318     -13.540
  N       84.146     -88.069     -14.830
  O       82.415     -85.578      -9.459
  O       80.956     -87.610      -9.289
  H       80.972     -86.469     -16.627
  H       80.386     -86.865      -9.014
  H       87.359     -90.996     -17.239
  H       84.075     -87.876     -12.675
  H       83.438     -86.584     -16.060
  H       81.844     -88.939     -15.547
  H       86.306     -90.638     -19.296
  H       81.082     -88.212     -13.522
  H       84.935     -89.586     -19.362
  H       81.067     -85.260     -14.293
  H       81.785     -85.102     -11.903
  H       80.265     -85.964     -12.007
  P       78.387     -88.117     -13.532
  C       76.095     -87.342     -12.689
  O       77.057     -87.248     -13.723
  O       78.908     -87.647     -12.093
  O       78.186     -89.597     -13.567
  H       78.456     -88.147     -11.387
  H       75.136     -86.972     -13.062
  H       76.408     -86.728     -11.840
  H       75.973     -88.380     -12.363
  H       84.981     -88.677      -8.503
  H       83.710     -87.876      -7.612
  H       84.827     -86.938      -8.573

 3  4  5  6  7  8  9  10  11  12  23  26  30  31 0
 6-311+G(2d,p)
 ****
 33  35  36  37  38 0
 6-311+G(2d,p)
 ****
 1  2  13  14  15  16  17  18  19  20  21  22  24  25 0
 3-21G
 ****
 27  28  29  32  34  39  40  41  42  43  44  45  46  47  48  49 0
 3-21G
 ****


