%nproc=1
%NoSave
%Mem=1900MB
#P OB98/GEN NMR

erre ene a

0 1
  C     -693.837    2052.544    1464.773
  O     -695.035    2052.706    1465.508
  H     -693.476    2051.528    1464.927
  H     -693.086    2053.240    1465.119
  H     -694.014    2052.697    1463.705
  P     -695.682    2054.183    1465.513
  C     -695.536    2054.652    1468.068
  O     -696.357    2054.303    1466.970
  C     -696.402    2054.908    1469.324
  O     -697.210    2056.096    1469.144
  C     -697.396    2053.788    1469.593
  O     -696.808    2052.656    1470.238
  C     -698.355    2054.513    1470.559
  O     -697.703    2054.667    1471.860
  C     -698.457    2055.869    1469.834
  N     -699.598    2055.940    1468.877
  C     -700.837    2055.515    1469.341
  O     -700.993    2055.124    1470.526
  N     -701.915    2055.520    1468.509
  C     -701.732    2055.899    1467.273
  N     -702.843    2055.886    1466.472
  C     -700.460    2056.377    1466.697
  C     -699.437    2056.373    1467.578
  O     -696.941    2054.041    1464.532
  O     -694.739    2055.292    1465.158
  H     -698.328    2055.183    1472.395
  H     -697.498    2054.866    1464.576
  H     -700.362    2056.664    1465.692
  H     -698.449    2056.656    1467.248
  H     -698.567    2056.697    1470.553
  H     -699.291    2054.018    1470.725
  H     -697.983    2053.504    1468.732
  H     -695.728    2055.082    1470.156
  H     -703.699    2055.510    1466.851
  H     -694.974    2055.552    1467.820
  H     -702.805    2056.042    1465.440
  H     -694.828    2053.833    1468.285
  P     -696.859    2051.268    1469.420
  C     -697.127    2049.544    1471.398
  O     -696.280    2050.134    1470.428
  O     -695.689    2051.443    1468.356
  O     -698.178    2050.905    1468.785
  H     -695.915    2050.994    1467.496
  H     -696.573    2048.825    1471.965
  H     -697.946    2049.059    1470.909
  H     -697.502    2050.303    1472.053

 6  7  8  9  10  11  12  13  14  15  16  26  30  31  32  33  35 0
 6-311+G(2d,p)
 ****
 37  38 0
 6-311+G(2d,p)
 ****
 1  2  3  4  5  17  18  19  20  21  22  23  24  25 0
 3-21G
 ****
 27  28  29  34  36  39  40  41  42  43  44  45  46 0
 3-21G
 ****


