%nproc=1
%NoSave
%Mem=1900MB
#P OB98/GEN NMR

erre ene a

0 1
  C     -464.452      69.869     201.448
  O     -464.864      70.887     200.555
  P     -464.944      72.412     201.029
  C     -467.364      72.071     201.986
  O     -466.043      72.526     202.178
  C     -468.169      72.322     203.270
  O     -467.474      71.776     204.405
  C     -468.377      73.815     203.517
  O     -469.627      74.240     202.993
  C     -468.287      73.916     205.027
  O     -469.545      73.552     205.631
  C     -467.211      72.852     205.347
  N     -465.794      73.236     205.218
  C     -464.870      72.794     206.164
  O     -465.157      72.059     207.105
  N     -463.585      73.254     206.001
  C     -463.146      74.052     204.984
  O     -462.074      74.642     204.984
  C     -464.099      74.255     203.885
  C     -465.360      73.869     204.061
  O     -465.633      73.142     199.785
  O     -463.639      73.038     201.395
  H     -469.843      72.731     205.198
  H     -464.962      73.577     199.225
  H     -462.945      73.048     206.758
  H     -463.750      74.764     202.997
  H     -466.092      74.045     203.276
  H     -467.347      72.449     206.358
  H     -468.084      74.938     205.344
  H     -467.553      74.391     203.077
  H     -469.137      71.814     203.186
  H     -467.364      71.005     201.739
  H     -467.824      72.597     201.142
  P     -469.946      75.804     202.881
  C     -471.443      75.745     204.962
  O     -470.268      76.274     204.380
  O     -470.964      76.181     201.856
  O     -468.515      76.450     202.565
  H     -468.425      76.603     201.602
  H     -471.453      75.999     206.022
  H     -471.470      74.657     204.850
  H     -472.321      76.188     204.483
  H     -464.465      68.925     200.944
  H     -465.119      69.836     202.284
  H     -463.460      70.076     201.792

 3  4  5  6  7  8  9  10  11  12  13  23  28  29  30  31  32 0
 6-311+G(2d,p)
 ****
 33  34 0
 6-311+G(2d,p)
 ****
 1  2  14  15  16  17  18  19  20  21  22  24  25  26  27 0
 3-21G
 ****
 35  36  37  38  39  40  41  42  43  44  45 0
 3-21G
 ****


