%nproc=1
%NoSave
%Mem=1900MB
#P OB98/GEN NMR

erre ene a

0 1
  C      -49.072     864.633     260.941
  O      -49.031     864.037     262.231
  P      -47.955     864.606     263.287
  C      -49.067     863.280     265.235
  O      -47.888     863.511     264.456
  C      -49.336     861.787     265.374
  O      -49.590     861.198     264.093
  C      -48.176     860.987     265.975
  O      -48.149     861.068     267.390
  C      -48.539     859.575     265.534
  O      -49.571     859.041     266.391
  C      -49.118     859.819     264.123
  N      -48.105     857.281     259.801
  C      -49.142     857.210     260.661
  N      -49.327     857.911     261.805
  C      -48.289     858.738     262.037
  C      -47.149     858.898     261.261
  C      -47.084     858.134     260.078
  N      -46.036     858.226     259.186
  N      -46.303     859.831     261.808
  C      -46.932     860.242     262.898
  N      -48.138     859.622     263.066
  O      -48.727     865.827     263.966
  O      -46.650     865.019     262.690
  H      -49.209     859.051     267.298
  H      -48.082     866.467     264.346
  H      -49.917     856.501     260.420
  H      -46.553     860.989     263.591
  H      -49.978     859.178     263.905
  H      -47.699     858.886     265.569
  H      -47.216     861.284     265.513
  H      -50.246     861.668     265.994
  H      -49.925     863.745     264.735
  H      -46.149     857.789     258.282
  H      -45.384     858.994     259.289
  H      -48.944     863.745     266.216
  P      -46.690     861.083     268.081
  C      -48.001     860.099     270.093
  O      -46.804     860.094     269.326
  O      -46.614     862.548     268.739
  O      -45.566     860.831     267.124
  H      -45.680     862.831     268.825
  H      -48.042     859.179     270.693
  H      -48.882     860.128     269.445
  H      -48.013     860.948     270.760
  H      -49.828     864.157     260.352
  H      -48.122     864.516     260.463
  H      -49.297     865.675     261.036

 3  4  5  6  7  8  9  10  11  12  22  25  29  30  31  32 0
 6-311+G(2d,p)
 ****
 33  36  37 0
 6-311+G(2d,p)
 ****
 1  2  13  14  15  16  17  18  19  20  21  23  24  26 0
 3-21G
 ****
 27  28  34  35  38  39  40  41  42  43  44  45  46  47  48 0
 3-21G
 ****


