%nproc=1
%NoSave
%Mem=1900MB
#P OB98/GEN NMR

erre ene a

0 1
  C      399.592    -408.528    -167.370
  O      399.326    -407.569    -166.368
  H      399.258    -408.128    -168.330
  H      399.047    -409.458    -167.171
  H      400.666    -408.730    -167.433
  P      399.618    -407.966    -164.839
  C      397.969    -408.718    -162.984
  O      398.286    -408.737    -164.369
  C      396.455    -408.675    -162.790
  O      395.921    -407.373    -163.142
  C      395.667    -409.659    -163.650
  O      395.767    -411.002    -163.202
  C      394.265    -409.092    -163.487
  O      393.747    -409.450    -162.190
  C      394.548    -407.569    -163.572
  N      394.343    -407.028    -164.911
  C      393.096    -407.253    -165.503
  O      392.224    -407.884    -164.905
  N      392.873    -406.794    -166.776
  C      393.816    -406.173    -167.419
  N      393.555    -405.783    -168.695
  C      395.141    -405.895    -166.832
  C      395.340    -406.347    -165.591
  O      400.064    -406.857    -163.942
  O      400.670    -409.173    -164.934
  H      393.641    -410.416    -162.185
  H      400.893    -409.444    -164.009
  H      395.899    -405.385    -167.408
  H      396.291    -406.198    -165.096
  H      393.913    -407.018    -162.868
  H      393.563    -409.464    -164.234
  H      395.960    -409.574    -164.701
  H      396.253    -408.822    -161.716
  H      392.657    -406.029    -169.082
  H      398.449    -407.839    -162.535
  H      394.310    -405.556    -169.342
  H      398.354    -409.619    -162.493
  P      395.604    -412.168    -164.287
  C      393.580    -413.377    -165.406
  O      394.023    -412.346    -164.536
  O      396.009    -413.482    -163.470
  O      396.399    -412.009    -165.550
  H      396.957    -413.699    -163.600
  H      392.512    -413.361    -165.463
  H      393.903    -414.325    -165.029
  H      393.992    -413.222    -166.381

 6  7  8  9  10  11  12  13  14  15  16  26  30  31  32  33  35 0
 6-311+G(2d,p)
 ****
 37  38 0
 6-311+G(2d,p)
 ****
 1  2  3  4  5  17  18  19  20  21  22  23  24  25 0
 3-21G
 ****
 27  28  29  34  36  39  40  41  42  43  44  45  46 0
 3-21G
 ****


