%nproc=1
%NoSave
%Mem=1900MB
#P OB98/GEN NMR

erre ene a

0 1
  C      676.045    -894.750    -156.280
  O      677.336    -894.340    -155.785
  P      677.647    -894.670    -154.254
  C      680.229    -894.940    -154.437
  O      678.987    -895.600    -154.181
  C      681.422    -895.860    -154.037
  O      681.391    -896.050    -152.571
  C      681.404    -897.270    -154.666
  O      682.759    -897.640    -154.948
  C      680.907    -898.140    -153.529
  O      681.302    -899.500    -153.727
  C      681.538    -897.460    -152.331
  N      682.323    -899.560    -147.790
  C      683.228    -899.210    -148.763
  N      684.513    -899.510    -148.513
  N      682.886    -898.640    -149.906
  C      681.571    -898.380    -149.990
  C      680.537    -898.630    -149.103
  C      680.960    -899.300    -147.848
  O      680.175    -899.680    -146.952
  N      679.331    -898.230    -149.543
  C      679.581    -897.730    -150.747
  N      680.936    -897.790    -151.067
  O      676.498    -895.690    -153.811
  O      677.671    -893.460    -153.350
  H      680.725    -899.890    -154.419
  H      675.985    -895.330    -153.067
  H      682.609    -900.000    -146.936
  H      678.849    -897.330    -151.428
  H      682.603    -897.660    -152.249
  H      679.818    -898.130    -153.511
  H      684.852    -899.890    -147.630
  H      680.812    -897.340    -155.568
  H      685.217    -899.230    -149.223
  H      682.344    -895.330    -154.264
  H      680.296    -894.010    -153.882
  H      680.300    -894.730    -155.494
  P      683.213    -897.630    -156.484
  C      685.465    -896.320    -156.315
  O      684.094    -896.300    -156.687
  O      681.838    -897.290    -157.261
  O      683.844    -898.880    -156.971
  H      681.885    -897.650    -158.186
  H      685.805    -897.310    -156.070
  H      685.588    -895.700    -155.400
  H      686.050    -895.890    -157.130
  H      675.955    -894.476    -157.310
  H      675.276    -894.267    -155.714
  H      675.946    -895.811    -156.183

 3  4  5  6  7  8  9  10  11  12  23  26  30  31  33  0
 6-311+G(2d,p)
 ****
 35  36  37  38 0
 6-311+G(2d,p)
 ****
 1  2  13  14  15  16  17  18  19  20  21  22  24  25  27  28  29 0
 3-21G
 ****
 32  34  39  40  41  42  43  44  45  46  47  48  49 0
 3-21G
 ****


