%nproc=1
%NoSave
%Mem=1900MB
#P OB98/GEN NMR

erre ene a

0 1
  C     1507.468      37.162    -610.816
  O     1506.937      38.278    -610.134
  H     1508.498      36.993    -610.486
  H     1507.474      37.345    -611.900
  H     1506.874      36.264    -610.600
  P     1505.437      38.704    -610.505
  C     1506.235      41.135    -610.033
  O     1505.502      40.262    -610.890
  C     1506.868      42.257    -610.849
  O     1508.020      41.769    -611.573
  C     1505.960      42.901    -611.871
  O     1505.125      43.893    -611.274
  C     1506.960      43.497    -612.843
  O     1507.484      44.755    -612.359
  C     1508.066      42.424    -612.867
  N     1510.549      39.586    -616.221
  C     1511.031      40.448    -615.262
  N     1512.368      40.616    -615.217
  N     1510.255      41.091    -614.411
  C     1508.947      40.844    -614.600
  C     1508.344      40.010    -615.514
  C     1509.203      39.279    -616.424
  O     1508.836      38.452    -617.264
  N     1506.979      40.021    -615.391
  C     1506.752      40.895    -614.422
  N     1507.910      41.447    -613.921
  O     1504.687      38.709    -609.086
  O     1504.744      37.812    -611.487
  H     1508.143      45.086    -612.998
  H     1503.753      38.478    -609.219
  H     1511.183      39.108    -616.831
  H     1505.763      41.174    -614.045
  H     1509.062      42.864    -612.970
  H     1506.517      43.705    -613.824
  H     1512.956      40.417    -616.012
  H     1505.360      42.144    -612.392
  H     1512.724      41.255    -614.519
  H     1507.235      43.009    -610.124
  H     1507.002      40.561    -609.528
  H     1505.538      41.553    -609.289
  P     1503.540      43.682    -611.365
  C     1503.250      46.036    -610.287
  O     1502.892      45.162    -611.346
  O     1503.154      43.103    -609.931
  O     1503.091      42.783    -612.478
  H     1502.268      42.692    -609.958
  H     1502.745      46.971    -610.410
  H     1504.308      46.197    -610.300
  H     1502.967      45.598    -609.352

 6  7  8  9  10  11  12  13  14  15  26  29  33  34 0
 6-311+G(2d,p)
 ****
 36  38  39  40  41 0
 6-311+G(2d,p)
 ****
 1  2  3  4  5  16  17  18  19  20  21  22  23  24  25 0
 3-21G
 ****
 27  28  30  31  32  35  37  42  43  44  45  46  47 0
 3-21G
 ****
 48  49 0
 3-21G
 ****


