%nproc=1
%NoSave
%Mem=1900MB
#P OB98/GEN NMR

erre ene a

0 1
  C      336.686    -527.092     343.802
  O      338.056    -527.270     344.095
  H      336.306    -526.258     344.394
  H      336.130    -527.993     344.069
  H      336.544    -526.867     342.742
  P      338.866    -528.346     343.219
  C      341.193    -528.106     342.089
  O      340.409    -527.898     343.256
  C      342.322    -527.077     342.014
  O      341.777    -525.820     341.536
  C      342.999    -526.812     343.361
  O      344.402    -526.633     343.139
  C      342.390    -525.500     343.820
  O      343.236    -524.782     344.718
  C      342.131    -524.795     342.481
  N      341.082    -523.783     342.600
  C      341.504    -522.469     342.832
  O      342.707    -522.209     342.927
  N      340.558    -521.492     342.999
  C      339.300    -521.808     343.026
  N      338.411    -520.800     343.228
  C      338.813    -523.193     342.859
  C      339.752    -524.120     342.646
  O      338.424    -528.013     341.718
  O      338.628    -529.774     343.581
  H      342.751    -523.986     345.027
  H      338.414    -528.815     341.165
  H      337.756    -523.417     342.917
  H      339.486    -525.163     342.520
  H      343.050    -524.310     342.117
  H      341.442    -525.694     344.333
  H      342.845    -527.613     344.088
  H      343.052    -527.416     341.268
  H      338.782    -519.868     343.357
  H      340.553    -527.995     341.208
  H      337.413    -520.937     343.314
  H      341.602    -529.124     342.104
  P      345.367    -527.794     343.670
  C      347.521    -528.876     342.692
  O      346.763    -527.691     342.885
  O      344.702    -529.129     343.088
  O      345.488    -527.841     345.162
  H      344.282    -529.635     343.811
  H      348.417    -528.643     342.156
  H      346.944    -529.581     342.131
  H      347.773    -529.297     343.643

 6  7  8  9  10  11  12  13  14  15  16  26  30  31  32  33  35 0
 6-311+G(2d,p)
 ****
 37  38 0
 6-311+G(2d,p)
 ****
 1  2  3  4  5  17  18  19  20  21  22  23  24  25 0
 3-21G
 ****
 27  28  29  34  36  39  40  41  42  43  44  45  46 0
 3-21G
 ****


