%nproc=1
%NoSave
%Mem=1900MB
#P OB98/GEN NMR

erre ene a

0 1
  C      145.654     -16.323    -404.509
  O      144.636     -16.579    -403.560
  P      143.949     -18.028    -403.545
  C      145.727     -19.118    -401.947
  O      145.117     -19.083    -403.223
  C      145.846     -20.565    -401.456
  O      144.516     -21.142    -401.362
  C      146.679     -21.478    -402.366
  O      147.369     -22.404    -401.519
  C      145.619     -22.193    -403.186
  O      146.083     -23.414    -403.735
  C      144.510     -22.354    -402.138
  N      143.187     -22.587    -402.720
  C      142.782     -23.904    -402.903
  O      143.475     -24.882    -402.628
  N      141.536     -24.071    -403.455
  C      140.709     -23.077    -403.891
  O      139.611     -23.282    -404.393
  C      141.213     -21.707    -403.714
  C      142.402     -21.530    -403.137
  O      143.648     -18.244    -405.101
  O      142.760     -18.118    -402.652
  H      144.335     -17.864    -405.677
  H      146.812     -23.214    -404.351
  H      141.206     -25.015    -403.564
  H      140.591     -20.890    -404.059
  H      142.794     -20.528    -402.998
  H      144.757     -23.174    -401.452
  H      145.298     -21.548    -404.009
  H      147.397     -20.921    -402.972
  H      146.265     -20.548    -400.441
  H      145.121     -18.551    -401.236
  H      146.713     -18.644    -402.004
  P      148.711     -23.094    -402.085
  C      150.632     -21.840    -400.823
  O      149.881     -22.004    -402.004
  O      148.368     -23.139    -403.652
  O      149.012     -24.446    -401.522
  H      148.036     -22.288    -403.989
  H      151.560     -21.318    -401.068
  H      150.879     -22.804    -400.373
  H      150.065     -21.235    -400.108
  H      146.008     -15.320    -404.391
  H      145.261     -16.449    -405.496
  H      146.463     -17.007    -404.357

 3  4  5  6  7  8  9  10  11  12  13  24  28  29  30  31  32 0
 6-311+G(2d,p)
 ****
 33  34 0
 6-311+G(2d,p)
 ****
 1  2  14  15  16  17  18  19  20  21  22  23  25  26  27 0
 3-21G
 ****
 35  36  37  38  39  40  41  42  43  44  45 0
 3-21G
 ****


