%nproc=1
%NoSave
%Mem=1900MB
#P OB98/GEN NMR

erre ene a

0 1
  C      353.865      80.345    -511.825
  O      353.666      78.972    -512.213
  P      352.182      78.528    -512.640
  C      351.624      78.076    -510.146
  O      351.663      77.552    -511.461
  C      350.842      77.138    -509.218
  O      349.465      77.104    -509.607
  C      351.318      75.668    -509.288
  O      352.476      75.441    -508.487
  C      350.088      74.941    -508.703
  O      350.159      75.000    -507.271
  C      348.925      75.804    -509.224
  N      346.329      71.841    -511.035
  C      346.824      72.055    -509.772
  N      346.598      71.105    -508.841
  N      347.511      73.130    -509.449
  C      347.642      74.015    -510.459
  C      347.214      73.891    -511.758
  C      346.490      72.684    -512.117
  O      346.098      72.405    -513.235
  N      347.513      75.021    -512.489
  C      348.126      75.831    -511.631
  N      348.263      75.229    -510.387
  O      352.455      77.546    -513.862
  O      351.256      79.644    -513.013
  H      349.427      74.433    -506.932
  H      351.655      77.511    -514.455
  H      345.798      71.010    -511.239
  H      348.482      76.816    -511.860
  H      348.177      75.968    -508.442
  H      350.051      73.895    -508.992
  H      345.960      70.327    -509.009
  H      351.448      75.330    -510.331
  H      346.913      71.270    -507.897
  H      350.923      77.499    -508.193
  H      351.107      79.061    -510.151
  H      352.628      78.218    -509.771
  P      353.698      74.682    -509.243
  C      352.805      72.511    -508.117
  O      353.915      73.346    -508.379
  O      354.959      75.609    -508.881
  O      353.512      74.499    -510.712
  H      355.644      75.503    -509.540
  H      352.117      72.465    -508.969
  H      352.276      72.845    -507.228
  H      353.176      71.480    -507.930
  H      354.892      80.498    -511.568
  H      353.249      80.570    -510.979
  H      353.601      80.987    -512.639

 3  4  5  6  7  8  9  10  11  12  23  26  30  31  33  0
 6-311+G(2d,p)
 ****
 35  36  37  38 0
 6-311+G(2d,p)
 ****
 1  2  13  14  15  16  17  18  19  20  21  22  24  25  27  28  29 0
 3-21G
 ****
 32  34  39  40  41  42  43  44  45  46  47  48  49 0
 3-21G
 ****


