%nproc=1
%NoSave
%Mem=1900MB
#P OB98/GEN NMR

erre ene a

0 1
  C     1008.655    -530.963     -84.792
  O     1008.667    -531.254     -86.180
  P     1009.676    -530.523     -87.165
  C     1009.836    -532.455     -88.946
  O     1009.482    -531.123     -88.634
  C     1008.823    -533.019     -89.947
  O     1008.709    -532.153     -91.088
  C     1009.239    -534.398     -90.445
  O     1008.610    -535.420     -89.671
  C     1008.781    -534.381     -91.889
  O     1007.381    -534.674     -91.987
  C     1009.056    -532.901     -92.281
  N     1010.424    -532.529     -92.680
  C     1011.066    -533.237     -93.695
  O     1010.537    -534.153     -94.322
  N     1012.359    -532.858     -93.961
  C     1013.036    -531.836     -93.345
  O     1014.247    -531.667     -93.423
  C     1012.222    -530.976     -92.488
  C     1010.983    -531.357     -92.172
  O     1011.105    -531.100     -86.719
  O     1009.638    -529.026     -87.131
  H     1006.911    -534.049     -91.419
  H     1011.563    -530.468     -86.136
  H     1012.870    -533.450     -94.602
  H     1012.679    -530.064     -92.090
  H     1010.379    -530.749     -91.505
  H     1008.388    -532.584     -93.087
  H     1009.304    -535.145     -92.479
  H     1010.333    -534.504     -90.417
  H     1007.838    -533.075     -89.461
  H     1009.860    -533.055     -88.036
  H     1010.850    -532.478     -89.373
  P     1009.468    -536.684     -89.200
  C     1007.866    -537.099     -87.236
  O     1008.431    -537.635     -88.415
  O     1010.731    -536.367     -88.449
  O     1009.774    -537.466     -90.564
  H     1010.669    -537.238     -90.893
  H     1007.055    -537.750     -86.910
  H     1007.466    -536.094     -87.421
  H     1008.620    -537.060     -86.448
  H     1007.908    -531.558     -84.309
  H     1008.434    -529.926     -84.647
  H     1009.614    -531.185     -84.373

 3  4  5  6  7  8  9  10  11  12  13  23  28  29  30  31  32 0
 6-311+G(2d,p)
 ****
 33  34 0
 6-311+G(2d,p)
 ****
 1  2  14  15  16  17  18  19  20  21  22  24  25  26  27 0
 3-21G
 ****
 35  36  37  38  39  40  41  42  43  44  45 0
 3-21G
 ****


