%nproc=1
%NoSave
%Mem=1900MB
#P OB98/GEN NMR

erre ene a

0 1
  C     -210.551     -42.124      29.084
  O     -210.251     -40.872      29.665
  H     -210.269     -42.913      29.785
  H     -209.988     -42.259      28.154
  H     -211.623     -42.196      28.884
  P     -210.540     -39.574      28.767
  C     -211.777     -38.147      30.521
  O     -210.559     -38.359      29.816
  C     -212.056     -39.318      31.465
  O     -210.962     -39.418      32.411
  C     -213.351     -39.157      32.272
  O     -213.956     -40.440      32.440
  C     -212.858     -38.656      33.617
  O     -213.784     -38.925      34.668
  C     -211.522     -39.389      33.735
  N     -210.752     -38.322      38.652
  C     -211.621     -39.147      38.032
  N     -211.741     -39.390      36.709
  C     -210.803     -38.719      36.017
  C     -209.852     -37.843      36.509
  C     -209.853     -37.644      37.902
  N     -208.995     -36.782      38.542
  N     -209.102     -37.318      35.477
  C     -209.584     -37.874      34.382
  N     -210.628     -38.712      34.660
  O     -211.732     -39.662      27.874
  O     -209.138     -39.366      28.022
  H     -214.675     -38.638      34.376
  H     -208.390     -39.438      28.646
  H     -212.317     -39.675      38.678
  H     -209.228     -37.692      33.372
  H     -211.635     -40.421      34.089
  H     -212.703     -37.571      33.579
  H     -214.060     -38.470      31.813
  H     -212.062     -40.246      30.882
  H     -212.607     -38.038      29.814
  H     -209.063     -36.699      39.544
  H     -208.314     -36.269      38.002
  H     -211.680     -37.215      31.088
  P     -215.546     -40.575      32.289
  C     -216.178     -42.369      30.553
  O     -215.900     -42.098      31.918
  O     -216.205     -39.548      31.432
  O     -216.055     -40.467      33.807
  H     -216.859     -39.908      33.836
  H     -216.398     -43.409      30.433
  H     -215.326     -42.114      29.958
  H     -217.020     -41.788      30.238

 6  7  8  9  10  11  12  13  14  15  25  28  32  33  34  35 0
 6-311+G(2d,p)
 ****
 36  39  40 0
 6-311+G(2d,p)
 ****
 1  2  3  4  5  16  17  18  19  20  21  22  23  24 0
 3-21G
 ****
 26  27  29  30  31  37  38  41  42  43  44  45  46  47 0
 3-21G
 ****
 48 0
 3-21G
 ****


