%nproc=1
%NoSave
%Mem=1900MB
#P OB98/GEN NMR

erre ene a

0 1
  C     1042.265      71.210      26.721
  O     1043.022      70.670      25.654
  H     1042.322      70.562      27.597
  H     1042.678      72.194      26.981
  H     1041.219      71.337      26.416
  P     1042.577      69.231      25.110
  C     1044.996      68.393      25.551
  O     1043.607      68.178      25.754
  C     1045.782      67.156      26.001
  O     1045.859      67.120      27.446
  C     1045.141      65.834      25.583
  O     1045.455      65.488      24.247
  C     1045.815      64.883      26.568
  O     1047.177      64.619      26.134
  C     1045.830      65.720      27.859
  N     1043.155      62.173      30.400
  C     1044.258      62.089      29.624
  N     1044.913      63.086      28.976
  C     1044.308      64.273      29.207
  C     1043.183      64.507      29.952
  C     1042.597      63.391      30.589
  N     1041.463      63.482      31.377
  N     1042.833      65.854      29.918
  C     1043.775      66.409      29.171
  N     1044.675      65.493      28.700
  O     1043.006      69.262      23.561
  O     1041.133      68.884      25.287
  H     1047.567      64.020      26.799
  H     1042.507      68.583      23.068
  H     1044.673      61.093      29.502
  H     1043.834      67.463      28.950
  H     1046.720      65.552      28.465
  H     1045.310      63.921      26.648
  H     1044.067      65.822      25.771
  H     1046.804      67.239      25.607
  H     1045.317      69.256      26.140
  H     1041.013      62.607      31.626
  H     1040.951      64.360      31.395
  H     1045.177      68.589      24.479
  P     1044.592      64.313      23.566
  C     1046.788      63.011      23.088
  O     1045.497      62.985      23.677
  O     1044.637      64.668      22.012
  O     1043.192      64.197      24.082
  H     1043.866      64.327      21.543
  H     1047.268      62.067      23.240
  H     1047.371      63.785      23.541
  H     1046.698      63.200      22.039

 6  7  8  9  10  11  12  13  14  15  25  28  32  33  34  35 0
 6-311+G(2d,p)
 ****
 36  39  40 0
 6-311+G(2d,p)
 ****
 1  2  3  4  5  16  17  18  19  20  21  22  23  24 0
 3-21G
 ****
 26  27  29  30  31  37  38  41  42  43  44  45  46  47 0
 3-21G
 ****
 48 0
 3-21G
 ****


