%nproc=1
%NoSave
%Mem=1900MB
#P OB98/GEN NMR

erre ene a

0 1
  C     1018.564     206.648     118.809
  O     1019.138     205.601     119.569
  H     1017.936     206.240     118.016
  H     1017.939     207.259     119.471
  H     1019.348     207.281     118.382
  P     1020.103     204.588     118.790
  C     1018.677     202.611     119.695
  O     1019.236     203.251     118.561
  C     1017.705     201.521     119.246
  O     1016.532     202.123     118.637
  C     1018.275     200.572     118.195
  O     1019.075     199.559     118.770
  C     1016.990     199.994     117.619
  O     1016.450     199.008     118.528
  C     1016.077     201.234     117.575
  N     1013.397     202.496     113.405
  C     1013.086     201.757     114.490
  N     1013.854     201.460     115.559
  C     1015.075     202.025     115.432
  C     1015.535     202.788     114.385
  C     1014.634     203.037     113.328
  N     1014.964     203.785     112.212
  N     1016.863     203.162     114.595
  C     1017.164     202.646     115.771
  N     1016.120     201.938     116.311
  O     1021.167     204.145     119.908
  O     1020.764     205.130     117.562
  H     1016.173     199.494     119.327
  H     1021.971     203.789     119.477
  H     1012.077     201.342     114.500
  H     1018.116     202.758     116.263
  H     1015.032     200.993     117.785
  H     1017.138     199.499     116.656
  H     1018.807     201.111     117.400
  H     1017.375     200.968     120.134
  H     1018.137     203.349     120.292
  H     1014.323     203.739     111.437
  H     1015.933     204.056     112.085
  H     1019.490     202.172     120.297
  P     1019.940     198.636     117.771
  C     1018.842     196.361     118.389
  O     1018.996     197.380     117.412
  O     1021.056     198.009     118.715
  O     1020.526     199.372     116.606
  H     1021.855     197.785     118.221
  H     1018.192     195.600     118.011
  H     1018.420     196.780     119.278
  H     1019.798     195.935     118.614

 6  7  8  9  10  11  12  13  14  15  25  28  32  33  34  35 0
 6-311+G(2d,p)
 ****
 36  39  40 0
 6-311+G(2d,p)
 ****
 1  2  3  4  5  16  17  18  19  20  21  22  23  24 0
 3-21G
 ****
 26  27  29  30  31  37  38  41  42  43  44  45  46  47 0
 3-21G
 ****
 48 0
 3-21G
 ****


