%nproc=1
%NoSave
%Mem=1900MB
#P OB98/GEN NMR

erre ene a

0 1
  C      161.084    -320.240     199.719
  O      159.734    -319.841     199.567
  H      161.431    -320.708     198.794
  H      161.692    -319.353     199.913
  H      161.192    -320.935     200.554
  P      158.621    -320.996     199.574
  C      156.146    -321.069     198.794
  O      157.427    -320.481     198.630
  C      155.044    -320.050     198.507
  O      155.120    -318.998     199.514
  C      155.144    -319.385     197.124
  O      153.820    -319.219     196.608
  C      155.726    -318.016     197.441
  O      155.390    -317.040     196.460
  C      155.121    -317.741     198.813
  N      155.731    -312.733     199.448
  C      154.732    -313.456     198.903
  N      154.624    -314.798     198.822
  C      155.657    -315.400     199.440
  C      156.745    -314.792     200.049
  C      156.771    -313.387     200.019
  N      157.817    -312.641     200.513
  N      157.624    -315.750     200.519
  C      157.089    -316.906     200.183
  N      155.901    -316.744     199.526
  O      158.011    -320.875     201.052
  O      159.121    -322.372     199.286
  H      155.893    -317.229     195.642
  H      158.532    -321.421     201.667
  H      153.918    -312.889     198.464
  H      157.530    -317.878     200.357
  H      154.088    -317.375     198.756
  H      156.819    -318.087     197.495
  H      155.754    -319.944     196.409
  H      154.073    -320.542     198.631
  H      156.046    -321.420     199.826
  H      157.797    -311.644     200.355
  H      158.643    -313.114     200.842
  H      156.050    -321.928     198.121
  P      153.405    -320.110     195.339
  C      151.360    -321.609     194.750
  O      151.852    -320.480     195.462
  O      154.143    -321.504     195.617
  O      153.813    -319.518     194.027
  H      154.408    -321.916     194.773
  H      150.312    -321.719     194.936
  H      151.875    -322.488     195.076
  H      151.523    -321.468     193.702

 6  7  8  9  10  11  12  13  14  15  25  28  32  33  34  35 0
 6-311+G(2d,p)
 ****
 36  39  40 0
 6-311+G(2d,p)
 ****
 1  2  3  4  5  16  17  18  19  20  21  22  23  24 0
 3-21G
 ****
 26  27  29  30  31  37  38  41  42  43  44  45  46  47 0
 3-21G
 ****
 48 0
 3-21G
 ****


