%nproc=1
%NoSave
%Mem=1900MB
#P OB98/GEN NMR

erre ene a

0 1
  C       47.706       2.045     405.207
  O       47.259       1.310     404.083
  H       47.084       2.936     405.312
  H       48.746       2.354     405.068
  H       47.610       1.438     406.111
  P       48.070      -0.027     403.728
  C       50.590      -0.509     403.381
  O       49.568       0.476     403.449
  C       51.800       0.030     402.622
  O       52.319       1.199     403.278
  C       52.961      -0.951     402.514
  O       52.757      -1.846     401.433
  C       54.118      -0.002     402.237
  O       54.130       0.351     400.842
  C       53.756       1.231     403.086
  N       55.259       4.336     406.888
  C       54.797       4.599     405.646
  N       54.469       3.725     404.669
  C       54.650       2.460     405.080
  C       55.116       2.040     406.318
  C       55.424       3.044     407.252
  N       55.899       2.772     408.516
  N       55.177       0.663     406.379
  C       54.697       0.260     405.221
  N       54.397       1.309     404.385
  O       47.461      -0.896     402.682
  O       48.199      -0.698     405.178
  H       53.200       0.418     400.560
  H       48.390      -0.021     405.852
  H       54.676       5.650     405.404
  H       54.526      -0.775     404.944
  H       53.996       2.166     402.566
  H       55.088      -0.445     402.463
  H       53.143      -1.472     403.461
  H       51.462       0.340     401.624
  H       50.213      -1.411     402.883
  H       56.271       3.544     409.045
  H       56.141       1.816     408.734
  H       50.868      -0.770     404.405
  P       53.198      -3.386     401.540
  C       55.247      -4.533     402.584
  O       54.735      -3.346     401.989
  O       52.894      -4.199     400.330
  O       52.453      -3.921     402.850
  H       52.443      -4.899     402.852
  H       56.276      -4.388     402.841
  H       55.163      -5.344     401.891
  H       54.687      -4.759     403.467

 6  7  8  9  10  11  12  13  14  15  25  28  32  33  34  35 0
 6-311+G(2d,p)
 ****
 36  39  40 0
 6-311+G(2d,p)
 ****
 1  2  3  4  5  16  17  18  19  20  21  22  23  24 0
 3-21G
 ****
 26  27  29  30  31  37  38  41  42  43  44  45  46  47 0
 3-21G
 ****
 48 0
 3-21G
 ****


