%nproc=1
%NoSave
%Mem=1900MB
#P OB98/GEN NMR

erre ene a

0 1
  C      -57.075    -175.123     202.241
  O      -57.665    -176.403     202.328
  P      -57.014    -177.568     203.223
  C      -57.234    -178.995     201.092
  O      -57.416    -178.945     202.500
  C      -57.482    -180.404     200.547
  O      -57.211    -180.427     199.118
  C      -56.629    -181.503     201.197
  O      -57.440    -182.680     201.222
  C      -55.489    -181.657     200.208
  O      -54.803    -182.899     200.352
  C      -56.234    -181.463     198.881
  N      -55.325    -181.123     197.789
  C      -55.597    -181.701     196.545
  O      -56.516    -182.515     196.423
  N      -54.787    -181.390     195.480
  C      -53.737    -180.647     195.669
  N      -52.976    -180.364     194.576
  C      -53.347    -180.123     196.990
  C      -54.183    -180.383     197.992
  O      -57.334    -177.505     204.679
  O      -55.450    -177.458     202.906
  H      -53.993    -182.869     199.798
  H      -55.050    -176.696     203.399
  H      -52.435    -179.555     197.109
  H      -53.982    -180.040     199.000
  H      -56.779    -182.375     198.606
  H      -54.757    -180.855     200.356
  H      -56.281    -181.251     202.202
  H      -58.547    -180.631     200.680
  H      -53.290    -180.734     193.685
  H      -56.198    -178.712     200.875
  H      -52.192    -179.735     194.598
  H      -57.887    -178.266     200.603
  P      -58.086    -183.219     202.588
  C      -56.955    -185.457     202.082
  O      -58.152    -184.814     202.478
  O      -59.372    -182.562     202.980
  O      -56.951    -182.971     203.690
  H      -57.344    -183.032     204.583
  H      -57.028    -186.524     202.311
  H      -56.091    -185.038     202.605
  H      -56.816    -185.336     201.001
  H      -57.663    -174.502     201.598
  H      -56.086    -175.213     201.843
  H      -57.029    -174.685     203.216

 3  4  5  6  7  8  9  10  11  12  13  23  27  28  29  30  32 0
 6-311+G(2d,p)
 ****
 34  35 0
 6-311+G(2d,p)
 ****
 1  2  14  15  16  17  18  19  20  21  22  24  25  26 0
 3-21G
 ****
 31  33  36  37  38  39  40  41  42  43  44  45  46 0
 3-21G
 ****


