%nproc=1
%NoSave
%Mem=1900MB
#P OB98/GEN NMR

erre ene a

0 1
  C      173.707    -645.727    -248.523
  O      174.022    -645.304    -249.853
  P      174.203    -643.760    -250.254
  C      176.078    -642.145    -249.519
  O      175.756    -643.367    -250.174
  C      177.578    -642.033    -249.232
  O      178.020    -643.114    -248.394
  C      178.471    -642.086    -250.470
  O      178.434    -640.863    -251.179
  C      179.818    -642.428    -249.844
  O      180.466    -641.252    -249.334
  C      179.408    -643.372    -248.695
  N      179.635    -644.774    -249.016
  C      180.973    -645.182    -249.119
  O      181.884    -644.369    -248.998
  N      181.234    -646.504    -249.384
  C      180.255    -647.324    -249.598
  N      180.573    -648.626    -249.850
  C      178.834    -646.921    -249.591
  C      178.608    -645.643    -249.295
  O      173.301    -642.827    -249.509
  O      173.888    -643.701    -251.827
  H      179.899    -640.913    -248.613
  H      173.502    -642.832    -252.043
  H      178.051    -647.629    -249.803
  H      177.589    -645.260    -249.256
  H      179.964    -643.125    -247.781
  H      180.508    -642.892    -250.559
  H      178.148    -642.910    -251.121
  H      177.745    -641.092    -248.683
  H      181.558    -648.877    -249.844
  H      175.526    -642.110    -248.569
  H      179.891    -649.344    -250.029
  H      175.747    -641.310    -250.147
  P      177.446    -640.690    -252.426
  C      174.930    -641.208    -252.444
  O      175.973    -640.456    -251.842
  O      177.555    -641.737    -253.485
  O      177.824    -639.239    -253.014
  H      177.675    -639.245    -253.980
  H      174.100    -641.282    -251.736
  H      175.267    -642.218    -252.695
  H      174.592    -640.694    -253.345
  H      173.636    -646.794    -248.496
  H      172.772    -645.300    -248.225
  H      174.477    -645.403    -247.854

 3  4  5  6  7  8  9  10  11  12  13  23  27  28  29  30  32 0
 6-311+G(2d,p)
 ****
 34  35 0
 6-311+G(2d,p)
 ****
 1  2  14  15  16  17  18  19  20  21  22  24  25  26 0
 3-21G
 ****
 31  33  36  37  38  39  40  41  42  43  44  45  46 0
 3-21G
 ****


