%nproc=1
%NoSave
%Mem=1900MB
#P OB98/GEN NMR

erre ene a

0 1
  C      392.110     559.896     709.120
  O      392.819     561.057     708.693
  P      392.339     561.806     707.352
  C      389.938     562.338     706.577
  O      390.888     562.445     707.636
  C      388.704     563.199     706.871
  O      387.964     562.697     708.007
  C      389.055     564.643     707.223
  O      389.430     565.358     706.066
  C      387.758     565.101     707.885
  O      386.786     565.487     706.899
  C      387.294     563.821     708.615
  N      387.519     563.875     710.049
  C      386.641     563.128     710.849
  O      385.715     562.501     710.330
  N      386.841     563.122     712.210
  C      387.814     563.808     712.731
  N      387.957     563.764     714.083
  C      388.755     564.622     711.927
  C      388.543     564.619     710.617
  O      392.461     561.018     706.094
  O      393.289     563.106     707.316
  H      386.855     564.844     706.169
  H      393.422     563.365     706.381
  H      389.557     565.176     712.410
  H      389.183     565.195     709.950
  H      386.217     563.670     708.460
  H      387.916     565.971     708.526
  H      389.866     564.658     707.954
  H      388.052     563.168     705.987
  H      387.296     563.208     714.606
  H      389.634     561.287     706.463
  H      388.713     564.216     714.569
  H      390.413     562.636     705.638
  P      390.998     565.464     705.733
  C      392.830     563.891     704.777
  O      391.457     564.051     705.135
  O      391.676     565.491     707.190
  O      391.393     566.664     704.928
  H      392.471     566.047     707.165
  H      393.034     562.816     704.699
  H      393.490     564.323     705.528
  H      393.003     564.343     703.805
  H      392.550     559.520     710.020
  H      392.161     559.147     708.358
  H      391.087     560.150     709.303

 3  4  5  6  7  8  9  10  11  12  13  23  27  28  29  30  32 0
 6-311+G(2d,p)
 ****
 34  35 0
 6-311+G(2d,p)
 ****
 1  2  14  15  16  17  18  19  20  21  22  24  25  26 0
 3-21G
 ****
 31  33  36  37  38  39  40  41  42  43  44  45  46 0
 3-21G
 ****


