%nproc=1
%NoSave
%Mem=1900MB
#P OB98/GEN NMR

erre ene a

0 1
  C      -24.304     148.579     -85.413
  O      -22.981     149.051     -85.575
  H      -24.428     148.220     -84.389
  H      -24.481     147.746     -86.100
  H      -25.029     149.378     -85.600
  P      -22.664     149.902     -86.896
  C      -22.958     152.473     -86.739
  O      -22.155     151.349     -86.413
  C      -22.776     153.579     -85.697
  O      -23.647     153.298     -84.566
  C      -21.342     153.696     -85.160
  O      -21.032     155.080     -84.971
  C      -21.409     152.998     -83.813
  O      -20.405     153.455     -82.907
  C      -22.836     153.321     -83.377
  N      -22.140     151.546     -78.709
  C      -21.531     152.602     -79.363
  N      -20.588     153.280     -78.673
  N      -21.822     152.956     -80.589
  C      -22.809     152.207     -81.143
  C      -23.482     151.137     -80.603
  C      -23.132     150.737     -79.255
  O      -23.617     149.797     -78.631
  N      -24.391     150.620     -81.493
  C      -24.263     151.375     -82.570
  N      -23.322     152.355     -82.404
  O      -24.120     150.197     -87.497
  O      -21.787     149.226     -87.898
  H      -20.656     154.362     -82.623
  H      -24.216     149.756     -88.361
  H      -21.868     151.307     -77.771
  H      -24.816     151.251     -83.490
  H      -22.920     154.313     -82.919
  H      -21.276     151.918     -83.950
  H      -20.352     153.095     -77.713
  H      -20.598     153.246     -85.821
  H      -20.156     154.085     -79.122
  H      -23.114     154.528     -86.130
  H      -24.007     152.164     -86.764
  H      -22.673     152.848     -87.729
  P      -20.190     155.804     -86.131
  C      -21.990     156.013     -87.985
  O      -21.201     156.688     -87.015
  O      -19.798     154.594     -87.103
  O      -18.975     156.526     -85.638
  H      -18.845     154.396     -87.017
  H      -22.611     156.720     -88.494
  H      -22.604     155.283     -87.500
  H      -21.349     155.528     -88.691

 6  7  8  9  10  11  12  13  14  15  26  29  33  34 0
 6-311+G(2d,p)
 ****
 36  38  39  40  41 0
 6-311+G(2d,p)
 ****
 1  2  3  4  5  16  17  18  19  20  21  22  23  24  25 0
 3-21G
 ****
 27  28  30  31  32  35  37  42  43  44  45  46  47 0
 3-21G
 ****
 48  49 0
 3-21G
 ****


