%nproc=1
%NoSave
%Mem=1900MB
#P OB98/GEN NMR

erre ene a

0 1
  C      -78.375    -146.365      28.366
  O      -78.529    -147.180      27.216
  P      -77.199    -147.675      26.464
  C      -77.302    -149.971      27.690
  O      -76.542    -148.812      27.387
  C      -76.744    -151.189      26.944
  O      -75.344    -151.340      27.293
  C      -77.440    -152.515      27.269
  O      -77.393    -153.312      26.080
  C      -76.538    -153.124      28.326
  O      -76.696    -154.535      28.436
  C      -75.171    -152.672      27.828
  N      -71.906    -155.464      30.498
  C      -72.834    -155.853      29.548
  N      -72.846    -157.164      29.225
  N      -73.668    -155.032      28.966
  C      -73.525    -153.749      29.380
  C      -72.678    -153.248      30.338
  C      -71.734    -154.160      30.944
  O      -70.839    -153.844      31.725
  N      -72.887    -151.911      30.546
  C      -73.805    -151.588      29.658
  N      -74.191    -152.659      28.896
  O      -76.210    -146.432      26.633
  O      -77.376    -148.078      25.033
  H      -75.958    -154.877      28.980
  H      -76.253    -145.838      25.859
  H      -71.277    -156.139      30.898
  H      -74.221    -150.604      29.515
  H      -74.780    -153.315      27.027
  H      -76.767    -152.682      29.304
  H      -72.211    -157.846      29.611
  H      -78.472    -152.397      27.608
  H      -73.491    -157.471      28.509
  H      -76.793    -150.983      25.869
  H      -78.337    -149.812      27.370
  H      -77.296    -150.143      28.771
  P      -78.545    -154.406      25.864
  C      -80.190    -152.980      24.461
  O      -79.929    -153.622      25.692
  O      -78.677    -155.073      27.316
  O      -78.241    -155.440      24.830
  H      -78.929    -156.010      27.223
  H      -81.269    -152.852      24.352
  H      -79.817    -153.563      23.616
  H      -79.716    -151.995      24.459
  H      -79.339    -146.115      28.757
  H      -77.854    -145.469      28.101
  H      -77.816    -146.897      29.108

 3  4  5  6  7  8  9  10  11  12  23  26  30  31 0
 6-311+G(2d,p)
 ****
 33  35  36  37  38 0
 6-311+G(2d,p)
 ****
 1  2  13  14  15  16  17  18  19  20  21  22  24  25 0
 3-21G
 ****
 27  28  29  32  34  39  40  41  42  43  44  45  46  47  48  49 0
 3-21G
 ****


