%nproc=1
%NoSave
%Mem=1900MB
#P OB98/GEN NMR

erre ene a

0 1
  C      151.299     587.366    -263.044
  O      150.721     586.202    -263.601
  H      150.766     587.647    -262.129
  H      152.341     587.156    -262.788
  H      151.263     588.187    -263.762
  P      149.173     586.284    -264.008
  C      149.698     584.250    -265.528
  O      148.772     584.857    -264.632
  C      149.549     582.734    -265.478
  O      149.912     582.278    -264.148
  C      148.130     582.214    -265.791
  O      148.170     581.309    -266.901
  C      147.732     581.437    -264.553
  O      147.034     580.226    -264.846
  C      149.065     581.162    -263.854
  N      147.687     577.880    -260.204
  C      148.125     577.681    -261.466
  N      148.582     578.595    -262.352
  C      148.579     579.832    -261.813
  C      148.177     580.180    -260.536
  C      147.691     579.146    -259.719
  N      147.188     579.360    -258.452
  N      148.303     581.544    -260.349
  C      148.732     582.010    -261.504
  N      148.892     581.005    -262.431
  O      149.175     587.264    -265.277
  O      148.261     586.781    -262.938
  H      146.113     580.468    -265.036
  H      148.490     587.944    -265.172
  H      148.106     576.652    -261.819
  H      148.889     583.056    -261.748
  H      149.549     580.254    -264.244
  H      147.084     582.067    -263.928
  H      147.420     583.020    -265.992
  H      150.280     582.291    -266.174
  H      150.715     584.522    -265.238
  H      146.764     578.576    -257.987
  H      147.095     580.311    -258.128
  H      149.515     584.630    -266.543
  P      147.893     581.943    -268.358
  C      148.564     580.043    -270.012
  O      147.514     580.738    -269.343
  O      149.361     582.364    -268.853
  O      146.949     583.104    -268.344
  H      149.310     583.110    -269.480
  H      148.147     579.273    -270.627
  H      149.220     579.605    -269.288
  H      149.113     580.729    -270.622

 6  7  8  9  10  11  12  13  14  15  25  28  32  33  34  35 0
 6-311+G(2d,p)
 ****
 36  39  40 0
 6-311+G(2d,p)
 ****
 1  2  3  4  5  16  17  18  19  20  21  22  23  24 0
 3-21G
 ****
 26  27  29  30  31  37  38  41  42  43  44  45  46  47  48 0
 3-21G
 ****


