%nproc=1
%NoSave
%Mem=1900MB
#P OB98/GEN NMR

erre ene a

0 1
  C     2674.990     122.890    -224.474
  O     2674.432     124.109    -224.043
  H     2674.654     122.694    -225.494
  H     2674.645     122.069    -223.829
  H     2676.073     122.941    -224.464
  P     2674.961     124.715    -222.660
  C     2675.169     127.230    -223.336
  O     2675.846     126.000    -223.036
  C     2675.095     127.407    -224.859
  O     2674.267     126.346    -225.419
  C     2674.475     128.751    -225.298
  O     2675.125     129.193    -226.472
  C     2673.045     128.358    -225.624
  O     2672.406     129.262    -226.533
  C     2673.259     126.956    -226.234
  N     2672.026     126.170    -226.243
  C     2671.740     125.440    -227.404
  O     2672.482     125.343    -228.352
  N     2670.540     124.796    -227.389
  C     2669.599     124.834    -226.397
  O     2668.526     124.246    -226.483
  C     2669.951     125.624    -225.229
  C     2671.124     126.246    -225.195
  O     2676.055     123.636    -222.199
  O     2673.925     124.967    -221.614
  H     2675.645     122.947    -221.651
  H     2672.936     129.286    -227.356
  H     2670.323     124.270    -228.231
  H     2669.223     125.675    -224.417
  H     2671.387     126.855    -224.338
  H     2673.648     127.045    -227.240
  H     2672.432     128.305    -224.713
  H     2674.505     129.540    -224.515
  H     2676.091     127.295    -225.286
  H     2675.734     128.064    -222.903
  H     2674.174     127.196    -222.911
  P     2676.188     130.393    -226.307
  C     2677.884     129.396    -228.042
  O     2677.610     129.759    -226.696
  O     2676.252     130.545    -224.706
  O     2675.808     131.620    -227.054
  H     2676.149     129.705    -224.237
  H     2678.873     128.994    -228.109
  H     2677.808     130.261    -228.667
  H     2677.177     128.660    -228.364

 6  7  8  9  10  11  12  13  14  15  16  27  31  32  33  34  35 0
 6-311+G(2d,p)
 ****
 36  37 0
 6-311+G(2d,p)
 ****
 1  2  3  4  5  17  18  19  20  21  22  23  24  25 0
 3-21G
 ****
 26  28  29  30  38  39  40  41  42  43  44  45 0
 3-21G
 ****


