%nproc=1
%NoSave
%Mem=1900MB
#P OB98/GEN NMR

erre ene a

0 1
  C     -483.984    -614.971     391.638
  O     -484.919    -614.776     390.586
  P     -484.882    -615.688     389.267
  C     -485.169    -613.542     387.861
  O     -485.663    -614.839     388.159
  C     -486.139    -612.814     386.926
  O     -486.263    -613.553     385.696
  C     -487.552    -612.669     387.475
  O     -487.616    -611.644     388.450
  C     -488.329    -612.408     386.194
  O     -488.194    -611.036     385.792
  C     -487.602    -613.320     385.183
  N     -488.298    -614.580     384.948
  C     -488.992    -614.694     383.742
  O     -488.993    -613.775     382.919
  N     -489.643    -615.869     383.464
  C     -489.632    -616.838     384.325
  N     -490.235    -618.005     383.969
  C     -488.962    -616.739     385.638
  C     -488.319    -615.598     385.878
  O     -485.378    -617.081     389.454
  O     -483.368    -615.601     388.765
  H     -488.656    -610.946     384.934
  H     -482.779    -616.291     389.166
  H     -488.986    -617.570     386.329
  H     -487.781    -615.457     386.807
  H     -487.471    -612.805     384.225
  H     -489.400    -612.622     386.277
  H     -487.885    -613.613     387.924
  H     -485.715    -611.828     386.693
  H     -490.526    -618.091     383.003
  H     -484.200    -613.646     387.358
  H     -490.026    -618.875     384.444
  H     -485.028    -612.984     388.793
  P     -488.309    -611.994     389.857
  C     -490.330    -610.485     389.258
  O     -489.293    -610.766     390.180
  O     -487.106    -611.836     390.906
  O     -488.932    -613.354     389.910
  H     -486.750    -612.704     391.144
  H     -491.036    -609.798     389.730
  H     -490.863    -611.400     388.977
  H     -489.912    -610.003     388.366
  H     -484.176    -614.267     392.421
  H     -482.992    -614.827     391.264
  H     -484.080    -615.965     392.021

 3  4  5  6  7  8  9  10  11  12  13  23  27  28  29  30  32 0
 6-311+G(2d,p)
 ****
 34  35 0
 6-311+G(2d,p)
 ****
 1  2  14  15  16  17  18  19  20  21  22  24  25  26 0
 3-21G
 ****
 31  33  36  37  38  39  40  41  42  43  44  45  46 0
 3-21G
 ****


