%nproc=1
%NoSave
%Mem=1900MB
#P OB98/GEN NMR

erre ene a

0 1
  C      634.537      40.692     258.068
  O      634.630      39.394     258.627
  P      634.406      39.234     260.206
  C      636.784      39.277     261.257
  O      635.692      38.483     260.816
  C      637.500      38.608     262.437
  O      636.533      38.253     263.459
  C      638.251      37.320     262.057
  O      639.435      37.200     262.864
  C      637.299      36.225     262.477
  O      637.988      34.995     262.708
  C      636.675      36.847     263.729
  N      634.397      32.822     265.784
  C      635.722      33.211     265.849
  N      636.566      32.360     266.480
  N      636.174      34.333     265.357
  C      635.221      35.076     264.746
  C      633.872      34.808     264.627
  C      633.386      33.558     265.169
  O      632.229      33.142     265.124
  N      633.206      35.814     263.976
  C      634.156      36.685     263.667
  N      635.397      36.261     264.073
  O      633.251      38.128     260.297
  O      634.002      40.487     260.911
  H      638.783      35.213     263.238
  H      632.404      38.556     260.537
  H      634.092      31.943     266.170
  H      634.005      37.608     263.119
  H      637.335      36.742     264.599
  H      636.546      36.060     261.697
  H      636.292      31.451     266.819
  H      638.525      37.255     260.997
  H      637.548      32.597     266.505
  H      638.184      39.338     262.887
  H      636.412      40.252     261.572
  H      637.486      39.424     260.429
  P      640.829      37.215     262.074
  C      641.491      34.857     262.987
  O      641.805      36.239     262.896
  O      641.412      38.673     262.369
  O      640.706      36.934     260.613
  H      642.026      38.945     261.663
  H      642.284      34.289     262.500
  H      640.528      34.621     262.510
  H      641.446      34.571     264.042
  H      634.709      40.639     257.013
  H      635.271      41.327     258.518
  H      633.561      41.090     258.251

 3  4  5  6  7  8  9  10  11  12  23  26  30  31 0
 6-311+G(2d,p)
 ****
 33  35  36  37  38 0
 6-311+G(2d,p)
 ****
 1  2  13  14  15  16  17  18  19  20  21  22  24  25 0
 3-21G
 ****
 27  28  29  32  34  39  40  41  42  43  44  45  46  47  48  49 0
 3-21G
 ****


