%nproc=1
%NoSave
%Mem=1900MB
#P OB98/GEN NMR

erre ene a

0 1
  C     -475.406    -560.444     448.294
  O     -475.509    -559.942     449.612
  P     -474.817    -558.555     450.003
  C     -472.973    -559.634     451.422
  O     -474.097    -558.757     451.431
  C     -472.634    -560.122     452.829
  O     -472.295    -558.974     453.662
  C     -473.770    -560.877     453.542
  O     -473.156    -561.871     454.367
  C     -474.391    -559.799     454.428
  O     -475.134    -560.333     455.511
  C     -473.133    -559.039     454.830
  N     -475.921    -556.244     458.091
  C     -475.904    -557.570     457.834
  N     -475.150    -558.239     456.934
  C     -474.356    -557.379     456.269
  C     -474.286    -556.005     456.387
  C     -475.107    -555.430     457.385
  N     -475.115    -554.080     457.676
  N     -473.379    -555.472     455.488
  C     -472.917    -556.510     454.820
  N     -473.434    -557.693     455.297
  O     -475.704    -557.351     449.931
  O     -473.590    -558.420     448.986
  H     -475.471    -559.607     456.056
  H     -473.784    -557.750     448.314
  H     -476.569    -558.171     458.429
  H     -472.222    -556.474     453.990
  H     -472.566    -559.548     455.624
  H     -475.060    -559.172     453.830
  H     -474.496    -561.328     452.860
  H     -471.739    -560.744     452.766
  H     -472.120    -559.083     451.013
  H     -475.642    -553.799     458.485
  H     -474.342    -553.507     457.350
  H     -473.175    -560.488     450.762
  P     -473.070    -563.396     453.860
  C     -474.669    -563.909     455.804
  O     -473.518    -564.315     455.092
  O     -471.793    -563.772     453.184
  O     -474.333    -563.519     452.864
  H     -474.220    -564.301     452.293
  H     -474.411    -563.107     456.500
  H     -475.057    -564.760     456.373
  H     -475.441    -563.552     455.114
  H     -475.929    -561.375     448.225
  H     -474.375    -560.595     448.049
  H     -475.836    -559.742     447.610

 3  4  5  6  7  8  9  10  11  12  22  25  29  30  31  32 0
 6-311+G(2d,p)
 ****
 33  36  37 0
 6-311+G(2d,p)
 ****
 1  2  13  14  15  16  17  18  19  20  21  23  24  26 0
 3-21G
 ****
 27  28  34  35  38  39  40  41  42  43  44  45  46  47  48 0
 3-21G
 ****


