%nproc=1
%NoSave
%Mem=1900MB
#P OB98/GEN NMR

erre ene a

0 1
  C      333.469    -221.981     345.346
  O      332.530    -220.934     345.090
  P      331.206    -220.917     346.008
  C      329.148    -220.381     344.505
  O      330.176    -219.876     345.350
  C      328.315    -219.242     343.925
  O      327.655    -218.498     344.967
  C      329.123    -218.203     343.153
  O      329.430    -218.648     341.840
  C      328.149    -217.035     343.119
  O      327.207    -217.214     342.043
  C      327.441    -217.151     344.484
  N      327.102    -212.449     346.348
  C      326.409    -213.044     345.310
  N      325.466    -212.283     344.704
  N      326.615    -214.274     344.904
  C      327.566    -214.922     345.625
  C      328.317    -214.442     346.669
  C      328.103    -213.070     347.087
  O      328.712    -212.487     347.976
  N      329.176    -215.403     347.155
  C      328.912    -216.464     346.420
  N      327.953    -216.223     345.470
  O      331.702    -220.158     347.332
  O      330.660    -222.273     346.311
  H      326.592    -216.457     342.080
  H      331.165    -220.441     348.097
  H      326.910    -211.499     346.612
  H      329.386    -217.433     346.541
  H      326.361    -217.003     344.393
  H      328.648    -216.078     342.947
  H      325.209    -211.360     345.012
  H      330.027    -217.917     343.713
  H      324.926    -212.718     343.966
  H      327.548    -219.678     343.270
  H      328.500    -221.052     345.074
  H      329.605    -220.979     343.708
  P      330.875    -218.275     341.259
  C      331.439    -217.768     338.773
  O      330.818    -218.643     339.700
  O      331.824    -219.400     341.887
  O      331.346    -216.894     341.592
  H      332.735    -219.063     341.991
  H      332.412    -217.429     339.134
  H      330.789    -216.904     338.603
  H      331.581    -218.300     337.825
  H      334.299    -221.886     344.678
  H      332.996    -222.929     345.195
  H      333.814    -221.911     346.356

 3  4  5  6  7  8  9  10  11  12  23  26  30  31  33  0
 6-311+G(2d,p)
 ****
 35  36  37  38 0
 6-311+G(2d,p)
 ****
 1  2  13  14  15  16  17  18  19  20  21  22  24  25  27  28  29 0
 3-21G
 ****
 32  34  39  40  41  42  43  44  45  46  47  48  49 0
 3-21G
 ****


