%nproc=1
%NoSave
%Mem=1900MB
#P OB98/GEN NMR

erre ene a

0 1
  C        6.154     -50.174     -34.794
  O        5.046     -50.996     -35.169
  P        3.838     -51.080     -34.116
  C        2.682     -48.782     -34.451
  O        2.631     -50.183     -34.675
  C        1.275     -48.180     -34.472
  O        1.158     -47.028     -33.617
  C        0.837     -47.719     -35.855
  O        0.407     -48.829     -36.624
  C       -0.289     -46.752     -35.517
  O       -1.535     -47.449     -35.312
  C        0.193     -46.118     -34.202
  N       -0.305     -41.207     -33.056
  C       -1.189     -42.253     -32.873
  N       -2.362     -41.951     -32.277
  N       -0.943     -43.483     -33.239
  C        0.270     -43.639     -33.820
  C        1.240     -42.687     -34.030
  C        0.954     -41.328     -33.623
  O        1.712     -40.373     -33.743
  N        2.366     -43.235     -34.591
  C        2.024     -44.487     -34.834
  N        0.786     -44.799     -34.327
  O        4.386     -50.255     -32.860
  O        3.474     -52.478     -33.740
  H       -2.186     -46.832     -34.932
  H        4.568     -50.863     -32.119
  H       -0.550     -40.277     -32.762
  H        2.640     -45.210     -35.346
  H       -0.628     -46.015     -33.482
  H       -0.467     -46.037     -36.324
  H       -2.616     -41.026     -31.967
  H        1.656     -47.185     -36.351
  H       -3.020     -42.705     -32.127
  H        0.584     -48.949     -34.101
  H        3.299     -48.303     -35.212
  H        3.171     -48.598     -33.488
  P        0.597     -48.758     -38.213
  C        2.731     -50.044     -38.937
  O        1.345     -50.097     -38.668
  O        1.705     -47.616     -38.395
  O       -0.645     -48.427     -38.971
  H        1.445     -47.022     -39.124
  H        3.171     -51.019     -38.715
  H        3.232     -49.282     -38.333
  H        2.883     -49.820     -39.996
  H        6.892     -50.195     -35.568
  H        6.580     -50.543     -33.885
  H        5.819     -49.168     -34.648

 3  4  5  6  7  8  9  10  11  12  23  26  30  31 0
 6-311+G(2d,p)
 ****
 33  35  36  37  38 0
 6-311+G(2d,p)
 ****
 1  2  13  14  15  16  17  18  19  20  21  22  24  25 0
 3-21G
 ****
 27  28  29  32  34  39  40  41  42  43  44  45  46  47  48  49 0
 3-21G
 ****


