%nproc=1
%NoSave
%Mem=1900MB
#P OB98/GEN NMR

erre ene a

0 1
  C      308.819    -205.235     259.825
  O      308.317    -203.932     260.066
  H      308.124    -205.764     259.166
  H      308.910    -205.798     260.759
  H      309.795    -205.179     259.332
  P      309.083    -203.010     261.128
  C      307.851    -202.666     263.382
  O      308.628    -203.544     262.571
  C      306.368    -202.835     263.065
  O      306.010    -204.231     263.076
  C      305.457    -202.165     264.086
  O      305.430    -200.761     263.898
  C      304.150    -202.883     263.820
  O      303.480    -202.345     262.673
  C      304.643    -204.326     263.549
  N      304.549    -205.190     264.722
  C      303.694    -206.291     264.608
  O      303.078    -206.498     263.563
  N      303.548    -207.117     265.694
  C      304.204    -206.882     266.789
  N      304.009    -207.738     267.824
  C      305.124    -205.734     266.943
  C      305.245    -204.937     265.882
  O      308.956    -201.525     260.950
  O      310.606    -203.498     261.025
  H      302.720    -202.944     262.508
  H      311.086    -202.984     260.348
  H      305.655    -205.582     267.873
  H      305.904    -204.076     265.916
  H      304.060    -204.784     262.737
  H      303.469    -202.808     264.669
  H      305.782    -202.412     265.105
  H      306.182    -202.446     262.054
  H      303.356    -208.505     267.678
  H      308.175    -201.644     263.151
  H      304.529    -207.705     268.692
  H      308.038    -202.858     264.445
  P      305.075    -199.779     265.112
  C      302.739    -198.819     264.586
  O      303.473    -199.842     265.255
  O      305.655    -198.408     265.020
  O      305.573    -200.598     266.398
  H      306.564    -200.590     266.472
  H      301.692    -198.964     264.752
  H      302.943    -198.862     263.536
  H      303.031    -197.863     264.967

 6  7  8  9  10  11  12  13  14  15  16  26  30  31  32  33  35 0
 6-311+G(2d,p)
 ****
 37  38 0
 6-311+G(2d,p)
 ****
 1  2  3  4  5  17  18  19  20  21  22  23  24  25 0
 3-21G
 ****
 27  28  29  34  36  39  40  41  42  43  44  45  46 0
 3-21G
 ****


