%nproc=1
%NoSave
%Mem=1900MB
#P OB98/GEN NMR

erre ene a

0 1
  C      882.446     126.881    -244.239
  O      881.961     127.323    -242.958
  P      882.797     127.168    -241.603
  C      880.879     125.986    -240.351
  O      881.777     127.075    -240.358
  C      879.670     126.243    -239.442
  O      880.131     126.496    -238.065
  C      878.801     127.438    -239.861
  O      877.437     127.061    -239.604
  C      879.255     128.525    -238.901
  O      878.350     129.603    -238.778
  C      879.434     127.687    -237.621
  N      880.176     128.340    -236.546
  C      879.449     129.131    -235.640
  O      878.242     129.301    -235.769
  N      880.121     129.703    -234.580
  C      881.400     129.540    -234.466
  N      881.995     130.139    -233.396
  C      882.215     128.744    -235.400
  C      881.542     128.172    -236.401
  O      883.846     128.224    -241.425
  O      883.470     125.721    -241.664
  H      884.346     125.754    -241.256
  H      877.443     129.224    -238.727
  H      883.274     128.628    -235.258
  H      882.055     127.550    -237.131
  H      878.449     127.371    -237.264
  H      880.215     128.932    -239.259
  H      878.897     127.707    -240.920
  H      879.070     125.326    -239.395
  H      881.412     130.677    -232.763
  H      881.412     125.086    -239.990
  H      882.977     130.064    -233.192
  H      880.544     125.784    -241.384
  P      876.558     126.390    -240.780
  C      875.099     128.487    -241.232
  O      875.142     127.139    -240.822
  O      876.166     124.984    -240.120
  O      877.267     126.165    -242.080
  H      875.998     124.319    -240.827
  H      874.264     128.621    -241.926
  H      876.006     128.812    -241.739
  H      874.930     129.135    -240.361
  H      881.713     127.091    -244.990
  H      882.631     125.828    -244.206
  H      883.354     127.395    -244.473

 3  4  5  6  7  8  9  10  11  12  13  24  27  28  29  30  32 0
 6-311+G(2d,p)
 ****
 34  35 0
 6-311+G(2d,p)
 ****
 1  2  14  15  16  17  18  19  20  21  22  23  25  26 0
 3-21G
 ****
 31  33  36  37  38  39  40  41  42  43  44  45  46 0
 3-21G
 ****


