%nproc=1
%NoSave
%Mem=1900MB
#P OB98/GEN NMR

erre ene a

0 1
  C      427.036     352.636    -767.562
  O      426.734     351.293    -767.247
  H      426.352     352.970    -768.345
  H      428.061     352.716    -767.932
  H      426.906     353.279    -766.688
  P      427.483     350.604    -766.006
  C      428.653     348.791    -767.414
  O      427.704     349.063    -766.391
  C      428.511     347.340    -767.881
  O      428.633     346.441    -766.756
  C      427.153     347.027    -768.506
  O      427.051     347.553    -769.812
  C      427.145     345.511    -768.414
  O      427.875     344.924    -769.494
  C      427.855     345.265    -767.066
  N      426.911     344.955    -765.993
  C      426.481     343.637    -765.916
  O      426.856     342.751    -766.680
  N      425.538     343.374    -764.954
  C      424.904     344.308    -764.190
  O      423.900     344.064    -763.521
  C      425.447     345.673    -764.264
  C      426.403     345.931    -765.159
  O      426.865     350.841    -764.666
  O      428.965     351.206    -766.079
  H      429.059     351.908    -765.404
  H      427.704     343.959    -769.439
  H      425.186     342.426    -764.926
  H      425.020     346.429    -763.620
  H      426.796     346.940    -765.261
  H      428.570     344.433    -767.158
  H      426.123     345.116    -768.448
  H      426.355     347.431    -767.875
  H      429.325     347.121    -768.583
  H      429.663     348.944    -767.011
  H      428.492     349.484    -768.243
  P      425.897     348.604    -770.177
  C      425.054     346.893    -771.905
  O      425.344     348.262    -771.645
  O      426.253     350.037    -769.960
  O      424.673     348.173    -769.232
  H      424.342     348.965    -768.764
  H      424.695     346.789    -772.908
  H      424.306     346.551    -771.221
  H      425.943     346.310    -771.782

 6  7  8  9  10  11  12  13  14  15  16  27  31  32  33  34  35 0
 6-311+G(2d,p)
 ****
 36  37 0
 6-311+G(2d,p)
 ****
 1  2  3  4  5  17  18  19  20  21  22  23  24  25 0
 3-21G
 ****
 26  28  29  30  38  39  40  41  42  43  44  45 0
 3-21G
 ****


