%nproc=1
%NoSave
%Mem=1900MB
#P OB98/GEN NMR

erre ene a

0 1
  C     -899.310     254.896     428.768
  O     -897.970     254.461     428.653
  H     -899.430     255.818     428.191
  H     -899.550     255.121     429.818
  H     -900.000     254.146     428.376
  P     -897.570     253.047     429.287
  C     -896.130     251.722     427.599
  O     -897.450     252.001     428.077
  C     -896.180     251.417     426.103
  O     -896.600     252.589     425.362
  C     -894.840     251.009     425.512
  O     -894.490     249.678     425.846
  C     -895.080     251.247     424.031
  O     -895.790     250.151     423.444
  C     -895.960     252.527     424.064
  N     -895.190     253.742     423.787
  C     -895.850     254.740     423.061
  O     -896.990     254.606     422.623
  N     -895.110     255.865     422.811
  C     -893.800     256.056     423.126
  O     -893.170     257.065     422.805
  C     -893.150     254.980     423.874
  C     -893.850     253.887     424.164
  O     -898.410     252.589     430.438
  O     -896.030     253.260     429.734
  H     -895.210     249.369     423.517
  H     -895.990     253.362     430.704
  H     -895.570     256.594     422.276
  H     -892.110     255.089     424.152
  H     -893.400     253.060     424.716
  H     -896.770     252.456     423.324
  H     -894.150     251.364     423.473
  H     -894.040     251.695     425.857
  H     -896.930     250.625     425.939
  H     -895.740     250.852     428.142
  H     -895.480     252.591     427.802
  P     -893.010     249.311     426.291
  C     -893.270     248.269     428.627
  O     -892.920     249.436     427.887
  O     -891.920     250.020     425.540
  O     -892.910     247.721     426.052
  H     -892.220     247.535     425.397
  H     -893.173     248.468     429.674
  H     -892.618     247.465     428.355
  H     -894.281     247.997     428.407

 6  7  8  9  10  11  12  13  14  15  16  26  31  32  33  34  35 0
 6-311+G(2d,p)
 ****
 36  37 0
 6-311+G(2d,p)
 ****
 1  2  3  4  5  17  18  19  20  21  22  23  24  25 0
 3-21G
 ****
 27  28  29  30  38  39  40  41  42  43  44  45 0
 3-21G
 ****


