%nproc=1
%NoSave
%Mem=1900MB
#P OB98/GEN NMR

erre ene a

0 1
  C      542.666     580.821     377.292
  O      542.246     579.476     377.163
  P      542.842     578.409     378.205
  C      544.990     576.922     378.269
  O      544.338     578.065     377.705
  C      546.293     576.621     377.539
  O      545.997     576.083     376.217
  C      547.210     577.834     377.373
  O      548.561     577.397     377.524
  C      546.998     578.248     375.940
  O      548.104     578.973     375.409
  C      546.729     576.881     375.270
  N      546.007     577.014     374.001
  C      546.739     576.890     372.825
  O      547.974     576.766     372.877
  N      546.103     576.967     371.613
  C      544.825     577.258     371.593
  N      544.232     577.310     370.367
  C      544.027     577.503     372.810
  C      544.673     577.344     373.952
  O      542.021     577.079     377.875
  O      542.719     578.809     379.639
  H      547.914     579.172     374.467
  H      541.892     576.542     378.672
  H      542.980     577.776     372.724
  H      544.174     577.486     374.909
  H      547.694     576.372     375.049
  H      546.102     578.887     375.850
  H      547.004     578.628     378.097
  H      546.820     575.822     378.088
  H      544.801     577.154     369.546
  H      544.325     576.063     378.161
  H      543.248     577.531     370.247
  H      545.159     577.094     379.325
  P      549.613     578.411     378.202
  C      550.660     580.658     377.513
  O      549.771     579.611     377.161
  O      551.005     577.619     377.987
  O      549.414     578.759     379.647
  H      551.729     578.106     378.417
  H      550.770     581.329     376.662
  H      551.651     580.237     377.776
  H      550.264     581.207     378.362
  H      542.194     581.416     376.539
  H      543.728     580.876     377.176
  H      542.394     581.188     378.259

 3  4  5  6  7  8  9  10  11  12  13  21  23  27  28  29  30  32 0
 6-311+G(2d,p)
 ****
 34  35 0
 6-311+G(2d,p)
 ****
 1  2  14  15  16  17  18  19  20  22  24  25  26 0
 3-21G
 ****
 31  33  36  37  38  39  40  41  42  43  44  45  46 0
 3-21G
 ****


