%nproc=1
%NoSave
%Mem=1900MB
#P OB98/GEN NMR

erre ene a

0 1
  C     -103.502      -3.949     -29.436
  O     -104.781      -4.534     -29.586
  P     -105.529      -5.197     -28.338
  C     -107.850      -4.785     -29.338
  O     -106.936      -5.766     -28.863
  C     -109.178      -5.418     -29.751
  O     -108.961      -6.257     -30.918
  C     -109.833      -6.294     -28.674
  O     -111.248      -6.146     -28.826
  C     -109.421      -7.697     -29.088
  O     -110.264      -8.705     -28.545
  C     -109.488      -7.563     -30.605
  N     -109.720     -11.673     -33.635
  C     -110.685     -10.908     -33.084
  N     -110.543      -9.845     -32.266
  C     -109.245      -9.594     -32.034
  C     -108.151     -10.305     -32.501
  C     -108.426     -11.386     -33.358
  N     -107.453     -12.155     -33.957
  N     -106.980      -9.774     -31.994
  C     -107.362      -8.765     -31.239
  N     -108.716      -8.580     -31.285
  O     -105.620      -4.340     -27.120
  O     -104.688      -6.527     -28.046
  H     -109.996      -9.566     -28.917
  H     -104.149      -6.407     -27.239
  H     -111.706     -11.181     -33.336
  H     -106.709      -8.143     -30.644
  H     -110.517      -7.612     -30.980
  H     -108.397      -7.894     -28.750
  H     -109.525      -6.049     -27.654
  H     -109.859      -4.614     -30.056
  H     -107.399      -4.295     -30.206
  H     -107.756     -12.816     -34.654
  H     -106.497     -11.805     -33.982
  H     -108.018      -4.029     -28.564
  P     -112.244      -6.991     -27.898
  C     -113.406      -4.738     -27.555
  O     -113.584      -6.127     -27.762
  O     -111.662      -7.479     -26.613
  O     -112.692      -8.207     -28.843
  H     -113.071      -8.922     -28.296
  H     -113.187      -4.552     -26.500
  H     -114.329      -4.217     -27.824
  H     -112.587      -4.349     -28.167
  H     -103.174      -3.563     -30.378
  H     -102.809      -4.689     -29.093
  H     -103.555      -3.152     -28.724

 3  4  5  6  7  8  9  10  11  12  22  25  29  30  31  32 0
 6-311+G(2d,p)
 ****
 33  36  37 0
 6-311+G(2d,p)
 ****
 1  2  13  14  15  16  17  18  19  20  21  23  24  26 0
 3-21G
 ****
 27  28  34  35  38  39  40  41  42  43  44  45  46  47  48 0
 3-21G
 ****


