%nproc=1
%NoSave
%Mem=1900MB
#P OB98/GEN NMR

erre ene a

0 1
  C     -729.960     492.938     241.703
  O     -731.133     492.201     242.003
  P     -732.336     492.231     240.944
  C     -731.387     490.184     239.659
  O     -731.826     491.538     239.591
  C     -732.075     489.340     238.583
  O     -733.512     489.569     238.631
  C     -731.611     489.657     237.160
  O     -731.634     488.458     236.372
  C     -732.698     490.569     236.629
  O     -732.743     490.553     235.204
  C     -733.934     489.969     237.308
  N     -738.099     491.649     234.993
  C     -737.369     490.498     234.762
  N     -737.761     489.737     233.723
  N     -736.358     490.118     235.503
  C     -736.075     490.985     236.506
  C     -736.732     492.151     236.843
  C     -737.843     492.561     236.013
  O     -738.512     493.579     236.142
  N     -736.178     492.736     237.948
  C     -735.158     491.961     238.261
  N     -735.034     490.900     237.396
  O     -732.430     493.784     240.558
  O     -733.639     491.732     241.472
  H     -732.688     489.615     234.928
  H     -733.210     494.184     240.984
  H     -738.862     491.899     234.389
  H     -734.470     492.124     239.080
  H     -734.287     489.071     236.788
  H     -732.520     491.602     236.954
  H     -738.492     490.007     233.078
  H     -730.615     490.117     237.095
  H     -737.221     488.912     233.505
  H     -731.911     488.281     238.816
  H     -731.636     489.780     240.647
  H     -730.302     490.142     239.533
  P     -730.261     488.089     235.622
  C     -729.031     487.037     237.660
  O     -729.122     488.113     236.748
  O     -729.953     489.393     234.745
  O     -730.334     486.843     234.794
  H     -729.411     489.156     233.974
  H     -728.062     486.540     237.526
  H     -729.832     486.301     237.520
  H     -729.088     487.431     238.677
  H     -729.253     492.822     242.497
  H     -730.207     493.973     241.594
  H     -729.535     492.575     240.791

 3  4  5  6  7  8  9  10  11  12  23  26  30  31 0
 6-311+G(2d,p)
 ****
 33  35  36  37  38 0
 6-311+G(2d,p)
 ****
 1  2  13  14  15  16  17  18  19  20  21  22  24  25 0
 3-21G
 ****
 27  28  29  32  34  39  40  41  42  43  44  45  46  47  48  49 0
 3-21G
 ****


