%nproc=1
%NoSave
%Mem=1900MB
#P OB98/GEN NMR

erre ene a

0 1
  C     -174.215    -532.751     147.230
  O     -174.846    -533.987     147.508
  H     -173.132    -532.905     147.223
  H     -174.461    -532.017     148.000
  H     -174.525    -532.383     146.246
  P     -176.446    -533.971     147.599
  C     -176.377    -536.324     148.682
  O     -176.785    -534.967     148.810
  C     -175.861    -536.853     150.017
  O     -174.590    -536.263     150.332
  C     -176.773    -536.563     151.200
  O     -177.808    -537.528     151.283
  C     -175.797    -536.697     152.355
  O     -175.619    -538.093     152.682
  C     -174.493    -536.132     151.771
  N     -173.229    -532.811     155.480
  C     -173.600    -534.111     155.528
  N     -173.974    -534.915     154.509
  C     -173.933    -534.253     153.340
  C     -173.576    -532.930     153.140
  C     -173.206    -532.196     154.277
  N     -172.833    -530.870     154.227
  N     -173.658    -532.596     151.801
  C     -173.996    -533.721     151.201
  N     -174.211    -534.742     152.093
  O     -177.169    -534.219     146.317
  O     -176.701    -532.534     148.257
  H     -174.813    -538.151     153.232
  H     -176.042    -532.353     148.948
  H     -173.600    -534.565     156.514
  H     -174.082    -533.849     150.129
  H     -173.617    -536.706     152.095
  H     -176.143    -536.203     153.264
  H     -177.162    -535.536     151.174
  H     -175.702    -537.938     149.906
  H     -175.592    -536.407     147.920
  H     -172.772    -530.375     155.100
  H     -172.939    -530.381     153.349
  H     -177.246    -536.903     148.347
  P     -179.334    -537.091     151.505
  C     -179.988    -539.554     151.159
  O     -180.079    -538.421     152.011
  O     -179.957    -536.405     150.337
  O     -179.299    -536.179     152.813
  H     -180.121    -535.653     152.880
  H     -180.519    -540.373     151.597
  H     -178.960    -539.822     151.031
  H     -180.417    -539.320     150.207

 6  7  8  9  10  11  12  13  14  15  25  28  32  33  34  35 0
 6-311+G(2d,p)
 ****
 36  39  40 0
 6-311+G(2d,p)
 ****
 1  2  3  4  5  16  17  18  19  20  21  22  23  24 0
 3-21G
 ****
 26  27  29  30  31  37  38  41  42  43  44  45  46  47 0
 3-21G
 ****
 48 0
 3-21G
 ****


