%nproc=1
%NoSave
%Mem=1900MB
#P OB98/GEN NMR

erre ene a

0 1
  C     -479.309    1000.302     448.132
  O     -478.443     999.588     449.012
  P     -478.090    1000.300     450.409
  C     -479.639    1001.189     452.295
  O     -479.353    1000.135     451.390
  C     -481.029    1000.991     452.909
  O     -482.052    1000.888     451.884
  C     -481.156     999.723     453.735
  O     -480.509     999.867     454.991
  C     -482.674     999.574     453.809
  O     -483.209    1000.457     454.809
  C     -483.110    1000.054     452.418
  N     -485.325     995.463     451.881
  C     -485.230     996.312     452.939
  N     -484.628     997.513     452.998
  C     -484.075     997.825     451.820
  C     -484.081     997.068     450.655
  C     -484.737     995.832     450.719
  N     -484.820     994.965     449.645
  N     -483.414     997.722     449.635
  C     -482.986     998.842     450.185
  N     -483.368     998.961     451.494
  O     -478.089    1001.852     450.038
  O     -476.780     999.869     450.988
  H     -482.889    1000.148     455.677
  H     -477.172    1002.200     450.044
  H     -485.710     995.977     453.858
  H     -482.399     999.609     449.674
  H     -484.023    1000.670     452.452
  H     -483.000     998.562     454.064
  H     -480.728     998.862     453.188
  H     -481.248    1001.868     453.534
  H     -479.590    1002.154     451.778
  H     -485.235     994.063     449.798
  H     -484.319     995.188     448.796
  H     -478.859    1001.212     453.069
  P     -478.932     999.556     455.055
  C     -476.850    1000.891     454.351
  O     -478.269    1000.826     454.310
  O     -478.788     998.395     453.975
  O     -478.412     999.256     456.414
  H     -479.272     998.594     453.153
  H     -476.532    1001.770     453.782
  H     -476.417     999.992     453.905
  H     -476.514    1001.001     455.390
  H     -479.467     999.728     447.243
  H     -478.863    1001.240     447.876
  H     -480.247    1000.474     448.617

 3  4  5  6  7  8  9  10  11  12  22  25  29  30  31  32 0
 6-311+G(2d,p)
 ****
 33  36  37 0
 6-311+G(2d,p)
 ****
 1  2  13  14  15  16  17  18  19  20  21  23  24  26 0
 3-21G
 ****
 27  28  34  35  38  39  40  41  42  43  44  45  46  47  48 0
 3-21G
 ****


