%nproc=1
%NoSave
%Mem=1900MB
#P OB98/GEN NMR

erre ene a

0 1
  C     -159.863    -153.908     163.303
  O     -159.844    -153.203     162.077
  H     -160.391    -153.306     164.047
  H     -158.841    -154.079     163.649
  H     -160.383    -154.865     163.189
  P     -159.328    -153.993     160.781
  C     -160.368    -155.714     159.135
  O     -160.559    -154.893     160.275
  C     -161.713    -156.255     158.649
  O     -162.286    -157.083     159.703
  C     -162.737    -155.166     158.311
  O     -163.512    -155.607     157.191
  C     -163.622    -155.131     159.543
  O     -164.921    -154.604     159.305
  C     -163.630    -156.611     159.935
  N     -164.028    -156.821     161.326
  C     -165.379    -157.040     161.578
  O     -166.244    -157.154     160.713
  N     -165.724    -157.129     162.902
  C     -164.879    -157.001     163.967
  O     -165.254    -157.068     165.133
  C     -163.466    -156.762     163.636
  C     -163.114    -156.682     162.352
  O     -158.312    -155.067     161.396
  O     -158.699    -153.148     159.724
  H     -157.411    -154.697     161.440
  H     -165.367    -154.525     160.173
  H     -166.699    -157.286     163.106
  H     -162.770    -156.644     164.457
  H     -162.081    -156.486     162.074
  H     -164.295    -157.178     159.270
  H     -163.149    -154.522     160.323
  H     -162.297    -154.189     158.091
  H     -161.539    -156.910     157.786
  H     -159.719    -156.556     159.396
  H     -159.883    -155.128     158.345
  P     -162.786    -155.646     155.758
  C     -160.754    -157.046     154.877
  O     -161.832    -156.933     155.797
  O     -161.790    -154.402     155.885
  O     -163.745    -155.580     154.616
  H     -161.439    -154.287     156.783
  H     -160.231    -157.963     155.051
  H     -160.084    -156.223     155.010
  H     -161.136    -157.037     153.877

 6  7  8  9  10  11  12  13  14  15  16  27  31  32  33  34  35 0
 6-311+G(2d,p)
 ****
 36  37 0
 6-311+G(2d,p)
 ****
 1  2  3  4  5  17  18  19  20  21  22  23  24  25 0
 3-21G
 ****
 26  28  29  30  38  39  40  41  42  43  44  45 0
 3-21G
 ****


