%nproc=1
%NoSave
%Mem=1900MB
#P OB98/GEN NMR

erre ene a

0 1
  C      -18.570    -151.172      50.017
  O      -19.984    -151.041      49.859
  P      -20.802    -152.406      49.645
  C      -20.822    -153.320      52.075
  O      -21.570    -152.741      51.015
  C      -21.615    -154.445      52.742
  O      -20.867    -155.100      53.785
  C      -22.906    -153.968      53.394
  O      -23.913    -153.802      52.411
  C      -23.200    -155.103      54.367
  O      -23.887    -156.190      53.713
  C      -21.794    -155.544      54.807
  N      -20.278    -156.834      59.470
  C      -20.771    -157.623      58.447
  N      -20.846    -158.948      58.695
  N      -21.152    -157.155      57.288
  C      -21.019    -155.812      57.180
  C      -20.520    -154.929      58.110
  C      -20.103    -155.460      59.390
  O      -19.641    -154.806      60.317
  N      -20.483    -153.649      57.616
  C      -21.076    -153.746      56.440
  N      -21.362    -155.045      56.101
  O      -19.653    -153.516      49.562
  O      -21.654    -152.403      48.420
  H      -23.314    -156.552      53.013
  H      -19.590    -153.860      48.651
  H      -20.007    -157.246      60.347
  H      -21.297    -152.914      55.788
  H      -21.716    -156.637      54.861
  H      -23.848    -154.779      55.186
  H      -20.567    -159.378      59.565
  H      -22.730    -153.037      53.946
  H      -21.196    -159.546      57.956
  H      -21.843    -155.191      51.970
  H      -20.568    -152.559      52.813
  H      -19.874    -153.697      51.672
  P      -24.574    -152.350      52.256
  C      -22.808    -150.951      50.966
  O      -24.003    -151.705      50.906
  O      -23.867    -151.503      53.418
  O      -26.059    -152.326      52.399
  H      -24.535    -150.964      53.881
  H      -22.290    -151.034      50.008
  H      -22.145    -151.304      51.761
  H      -23.054    -149.900      51.145
  H      -18.135    -150.204      50.151
  H      -18.155    -151.632      49.145
  H      -18.361    -151.779      50.873

 3  4  5  6  7  8  9  10  11  12  23  26  30  31 0
 6-311+G(2d,p)
 ****
 33  35  36  37  38 0
 6-311+G(2d,p)
 ****
 1  2  13  14  15  16  17  18  19  20  21  22  24  25 0
 3-21G
 ****
 27  28  29  32  34  39  40  41  42  43  44  45  46  47  48  49 0
 3-21G
 ****


