%nproc=1
%NoSave
%Mem=1900MB
#P OB98/GEN NMR

erre ene a

0 1
  C      -77.584    -223.494    -246.306
  O      -78.219    -224.711    -245.972
  P      -79.389    -225.316    -246.884
  C      -81.914    -224.998    -247.195
  O      -80.733    -224.503    -246.571
  C      -83.039    -223.963    -247.160
  O      -82.642    -222.795    -247.928
  C      -84.375    -224.466    -247.723
  O      -85.415    -223.909    -246.915
  C      -84.403    -223.868    -249.117
  O      -85.722    -223.777    -249.638
  C      -83.702    -222.527    -248.867
  N      -83.187    -221.933    -250.094
  C      -84.058    -221.106    -250.807
  O      -85.241    -221.009    -250.467
  N      -83.567    -220.423    -251.894
  C      -82.378    -220.693    -252.338
  N      -81.907    -219.946    -253.374
  C      -81.524    -221.747    -251.750
  C      -81.967    -222.292    -250.619
  O      -79.533    -226.801    -246.827
  O      -79.014    -224.834    -248.368
  H      -78.997    -225.612    -248.959
  H      -86.316    -223.436    -248.938
  H      -80.597    -222.025    -252.229
  H      -81.400    -223.055    -250.098
  H      -84.390    -221.816    -248.392
  H      -83.808    -224.492    -249.799
  H      -84.453    -225.559    -247.713
  H      -83.170    -223.636    -246.116
  H      -82.505    -219.206    -253.721
  H      -82.235    -225.888    -246.653
  H      -80.912    -219.864    -253.568
  H      -81.694    -225.290    -248.228
  P      -86.511    -224.905    -246.290
  C      -88.446    -226.315    -247.297
  O      -87.635    -225.163    -247.403
  O      -87.276    -223.933    -245.258
  O      -85.988    -226.102    -245.563
  H      -87.679    -224.476    -244.550
  H      -89.101    -226.365    -248.171
  H      -89.063    -226.267    -246.394
  H      -87.826    -227.219    -247.273
  H      -76.837    -223.269    -245.574
  H      -78.309    -222.708    -246.329
  H      -77.125    -223.584    -247.268

 3  4  5  6  7  8  9  10  11  12  13  24  27  28  29  30  32 0
 6-311+G(2d,p)
 ****
 34  35 0
 6-311+G(2d,p)
 ****
 1  2  14  15  16  17  18  19  20  21  22  23  25  26 0
 3-21G
 ****
 31  33  36  37  38  39  40  41  42  43  44  45  46 0
 3-21G
 ****


