%nproc=1
%NoSave
%Mem=1900MB
#P OB98/GEN NMR

erre ene a

0 1
  C     -119.277      92.951     123.575
  O     -119.550      92.591     122.236
  P     -119.289      91.104     121.698
  C     -116.920      91.817     120.991
  O     -117.696      90.897     121.744
  C     -115.488      91.318     120.804
  O     -114.753      92.247     119.962
  C     -114.693      91.152     122.110
  O     -113.819      90.037     121.909
  C     -113.903      92.443     122.176
  O     -112.780      92.354     123.046
  C     -113.579      92.662     120.693
  N     -113.210      94.045     120.408
  C     -111.845      94.348     120.407
  O     -111.017      93.482     120.711
  N     -111.449      95.626     120.115
  C     -112.343      96.550     119.946
  N     -111.892      97.801     119.651
  C     -113.794      96.303     120.061
  C     -114.154      95.035     120.282
  O     -119.925      90.781     120.388
  O     -119.792      90.174     122.899
  H     -113.085      92.004     123.912
  H     -120.781      90.120     122.905
  H     -114.501      97.112     119.972
  H     -115.193      94.759     120.381
  H     -112.751      92.010     120.379
  H     -114.546      93.253     122.546
  H     -115.325      90.995     122.989
  H     -115.530      90.360     120.269
  H     -110.892      97.922     119.566
  H     -116.895      92.765     121.537
  H     -112.504      98.569     119.420
  H     -117.396      92.004     120.022
  P     -114.004      88.674     122.733
  C     -112.574      89.457     124.704
  O     -113.859      89.039     124.284
  O     -113.154      87.535     122.272
  O     -115.565      88.331     122.584
  H     -115.717      87.398     122.830
  H     -112.658      89.940     125.682
  H     -112.138      90.169     123.994
  H     -111.916      88.586     124.791
  H     -119.520      93.982     123.724
  H     -118.239      92.796     123.781
  H     -119.865      92.347     124.234

 3  4  5  6  7  8  9  10  11  12  13  23  27  28  29  30  32 0
 6-311+G(2d,p)
 ****
 34  35 0
 6-311+G(2d,p)
 ****
 1  2  14  15  16  17  18  19  20  21  22  24  25  26 0
 3-21G
 ****
 31  33  36  37  38  39  40  41  42  43  44  45  46 0
 3-21G
 ****


