%nproc=1
%NoSave
%Mem=1900MB
#P OB98/GEN NMR

erre ene a

0 1
  C      217.334    -890.718     187.920
  O      216.554    -891.768     187.386
  H      218.385    -890.998     187.851
  H      217.083    -890.548     188.967
  H      217.184    -889.798     187.340
  P      214.954    -891.628     187.422
  C      214.256    -893.638     188.893
  O      214.466    -892.228     188.828
  C      213.718    -894.028     190.272
  O      212.387    -893.458     190.405
  C      213.610    -895.558     190.456
  O      214.262    -896.028     191.629
  C      212.116    -895.818     190.307
  O      211.663    -896.978     190.969
  C      211.482    -894.508     190.792
  N      210.145    -894.258     190.252
  C      209.136    -895.148     190.612
  O      209.274    -896.108     191.363
  N      207.900    -894.888     190.076
  C      207.591    -893.868     189.217
  O      206.464    -893.678     188.772
  C      208.712    -892.978     188.859
  C      209.912    -893.218     189.382
  O      214.242    -892.178     186.233
  O      214.706    -890.058     187.593
  H      210.686    -896.968     190.939
  H      214.405    -889.688     186.740
  H      207.161    -895.508     190.344
  H      208.501    -892.168     188.176
  H      210.756    -892.578     189.131
  H      211.401    -894.508     191.881
  H      211.891    -895.948     189.241
  H      214.142    -896.078     189.647
  H      214.346    -893.578     191.043
  H      215.216    -894.138     188.705
  H      213.541    -893.938     188.121
  P      215.644    -896.808     191.665
  C      214.740    -899.228     191.190
  O      215.506    -898.128     190.757
  O      216.269    -896.978     193.009
  O      216.634    -895.878     190.793
  H      217.525    -895.988     191.183
  H      214.774    -900.000     190.450
  H      213.726    -898.920     191.338
  H      215.138    -899.600     192.111

 6  7  8  9  10  11  12  13  14  15  16  26  31  32  33  34  35 0
 6-311+G(2d,p)
 ****
 36  37 0
 6-311+G(2d,p)
 ****
 1  2  3  4  5  17  18  19  20  21  22  23  24  25 0
 3-21G
 ****
 27  28  29  30  38  39  40  41  42  43  44  45 0
 3-21G
 ****


