%nproc=1
%NoSave
%Mem=1900MB
#P OB98/GEN NMR

erre ene a

0 1
  C      987.754     617.436     -59.172
  O      988.033     616.990     -60.507
  P      988.821     615.613     -60.721
  C      990.362     616.035     -62.752
  O      989.140     615.459     -62.291
  C      990.518     615.837     -64.257
  O      990.552     614.446     -64.613
  C      989.359     616.414     -65.067
  O      989.464     617.842     -65.118
  C      989.521     615.712     -66.389
  O      990.536     616.361     -67.211
  C      990.028     614.330     -65.960
  N      989.008     613.288     -66.035
  C      989.175     612.344     -67.069
  O      990.133     612.435     -67.855
  N      988.254     611.313     -67.184
  C      987.260     611.252     -66.344
  N      986.387     610.225     -66.510
  C      987.058     612.230     -65.270
  C      987.959     613.224     -65.177
  O      988.206     614.414     -60.072
  O      990.280     615.924     -60.106
  H      990.563     615.869     -68.062
  H      990.649     615.093     -59.761
  H      986.206     612.130     -64.584
  H      987.865     613.976     -64.407
  H      990.878     613.997     -66.594
  H      988.609     615.699     -66.983
  H      988.401     616.127     -64.609
  H      991.458     616.294     -64.567
  H      986.562     609.563     -67.262
  H      991.202     615.582     -62.235
  H      985.612     610.053     -65.882
  H      990.360     617.101     -62.481
  P      988.439     618.679     -64.192
  C      987.843     620.675     -65.733
  O      988.568     620.241     -64.609
  O      989.165     618.632     -62.753
  O      987.043     618.137     -64.125
  H      988.483     618.608     -62.051
  H      987.777     621.763     -65.692
  H      986.833     620.266     -65.759
  H      988.375     620.387     -66.646
  H      987.225     618.366     -59.210
  H      988.673     617.570     -58.641
  H      987.155     616.705     -58.670

 3  4  5  6  7  8  9  10  11  12  13  23  27  28  29  30  32 0
 6-311+G(2d,p)
 ****
 34  35 0
 6-311+G(2d,p)
 ****
 1  2  14  15  16  17  18  19  20  21  22  24  25  26 0
 3-21G
 ****
 31  33  36  37  38  39  40  41  42  43  44  45  46 0
 3-21G
 ****


