%nproc=1
%NoSave
%Mem=1900MB
#P OB98/GEN NMR

erre ene a

0 1
  C      -46.538      16.915     422.084
  O      -46.003      17.454     420.887
  P      -44.829      16.704     420.093
  C      -45.287      17.876     417.849
  O      -44.386      17.731     418.941
  C      -44.939      19.118     417.040
  O      -45.321      20.287     417.808
  C      -43.456      19.318     416.726
  O      -42.996      18.614     415.579
  C      -43.421      20.813     416.445
  O      -43.913      21.070     415.115
  C      -44.402      21.361     417.486
  N      -41.743      25.164     419.642
  C      -42.300      25.030     418.420
  N      -42.977      23.978     417.913
  C      -43.094      23.007     418.830
  C      -42.584      22.997     420.119
  C      -41.878      24.146     420.524
  N      -41.330      24.287     421.780
  N      -42.888      21.809     420.758
  C      -43.581      21.125     419.873
  N      -43.735      21.806     418.700
  O      -45.167      15.328     419.642
  O      -43.584      16.741     421.098
  H      -43.273      20.664     414.495
  H      -42.913      16.089     420.825
  H      -42.185      25.880     417.752
  H      -43.979      20.134     420.039
  H      -45.002      22.195     417.101
  H      -42.414      21.236     416.499
  H      -42.831      19.101     417.602
  H      -45.533      19.112     416.119
  H      -46.304      17.980     418.256
  H      -40.957      25.191     422.026
  H      -41.571      23.602     422.485
  H      -45.261      16.977     417.228
  P      -42.038      17.345     415.831
  C      -42.576      16.170     413.559
  O      -41.629      16.820     414.374
  O      -42.600      16.318     416.752
  O      -40.690      18.022     416.373
  H      -40.211      18.564     415.726
  H      -42.149      16.033     412.560
  H      -43.490      16.758     413.471
  H      -42.811      15.181     413.972
  H      -47.306      17.562     422.455
  H      -45.761      16.828     422.815
  H      -46.951      15.948     421.886

 3  4  5  6  7  8  9  10  11  12  22  25  29  30  31  32 0
 6-311+G(2d,p)
 ****
 33  36  37 0
 6-311+G(2d,p)
 ****
 1  2  13  14  15  16  17  18  19  20  21  23  24  26 0
 3-21G
 ****
 27  28  34  35  38  39  40  41  42  43  44  45  46  47  48 0
 3-21G
 ****


