%nproc=1
%NoSave
%Mem=1900MB
#P OB98/GEN NMR

erre ene a

0 1
  C      168.530    -782.479    -699.307
  O      169.030    -782.206    -700.597
  H      169.211    -783.149    -698.768
  H      168.445    -781.542    -698.754
  H      167.535    -782.934    -699.383
  P      169.329    -783.468    -701.529
  C      166.937    -784.199    -702.248
  O      168.136    -783.529    -702.621
  C      165.801    -783.797    -703.184
  O      165.466    -782.406    -702.996
  C      166.116    -783.936    -704.673
  O      166.014    -785.276    -705.119
  C      165.021    -783.063    -705.269
  O      163.789    -783.791    -705.325
  C      164.906    -781.911    -704.238
  N      164.996    -777.963    -707.503
  C      164.144    -779.010    -707.384
  N      164.191    -780.020    -706.502
  C      165.241    -779.889    -705.649
  C      166.183    -778.876    -705.676
  C      166.052    -777.883    -706.658
  N      166.925    -776.824    -706.785
  N      167.105    -779.063    -704.656
  C      166.734    -780.172    -704.059
  N      165.612    -780.713    -704.635
  O      169.013    -784.727    -700.578
  O      170.714    -783.557    -702.084
  H      163.093    -783.158    -705.581
  H      169.642    -785.445    -700.777
  H      163.307    -779.020    -708.073
  H      167.226    -780.608    -703.193
  H      163.851    -781.660    -704.044
  H      165.249    -782.726    -706.277
  H      167.100    -783.511    -704.903
  H      164.923    -784.406    -702.910
  H      166.668    -783.924    -701.221
  H      166.664    -776.043    -707.355
  H      167.701    -776.774    -706.129
  H      167.102    -785.278    -702.287
  P      166.826    -785.700    -706.434
  C      169.046    -786.525    -705.349
  O      167.818    -786.882    -705.988
  O      167.819    -784.458    -706.639
  O      165.990    -785.953    -707.633
  H      168.076    -784.377    -707.588
  H      169.596    -787.412    -705.113
  H      168.836    -785.985    -704.449
  H      169.625    -785.911    -706.007

 6  7  8  9  10  11  12  13  14  15  25  28  32  33  34  35 0
 6-311+G(2d,p)
 ****
 36  39  40 0
 6-311+G(2d,p)
 ****
 1  2  3  4  5  16  17  18  19  20  21  22  23  24 0
 3-21G
 ****
 26  27  29  30  31  37  38  41  42  43  44  45  46  47  48 0
 3-21G
 ****


