%nproc=1
%NoSave
%Mem=1900MB
#P OB98/GEN NMR

erre ene a

0 1
  C     -385.708    -334.616    -260.912
  O     -384.607    -335.509    -260.922
  P     -383.136    -334.880    -261.091
  C     -380.782    -335.851    -260.570
  O     -382.153    -335.787    -260.205
  C     -379.904    -335.416    -259.402
  O     -380.103    -334.021    -259.106
  C     -380.195    -336.147    -258.096
  O     -379.577    -337.423    -258.041
  C     -379.559    -335.206    -257.084
  O     -378.135    -335.414    -257.045
  C     -379.882    -333.831    -257.684
  N     -381.534    -330.873    -253.926
  C     -380.243    -331.131    -254.348
  N     -379.255    -330.570    -253.619
  N     -379.949    -331.872    -255.380
  C     -381.043    -332.378    -256.003
  C     -382.371    -332.191    -255.685
  C     -382.680    -331.379    -254.528
  O     -383.800    -331.155    -254.077
  N     -383.194    -332.856    -256.552
  C     -382.368    -333.445    -257.401
  N     -381.055    -333.221    -257.082
  O     -383.222    -333.515    -260.261
  O     -382.717    -334.654    -262.503
  H     -377.803    -334.903    -256.279
  H     -382.489    -332.924    -260.513
  H     -381.711    -330.297    -253.117
  H     -382.677    -334.050    -258.243
  H     -379.045    -333.130    -257.573
  H     -379.934    -335.359    -256.068
  H     -379.409    -330.038    -252.773
  H     -381.275    -336.214    -257.905
  H     -378.294    -330.792    -253.863
  H     -378.853    -335.557    -259.693
  H     -380.605    -335.193    -261.423
  H     -380.535    -336.872    -260.869
  P     -379.893    -338.329    -256.759
  C     -379.220    -340.742    -256.074
  O     -379.329    -339.786    -257.107
  O     -381.485    -338.502    -256.827
  O     -379.447    -337.740    -255.456
  H     -381.847    -338.664    -255.933
  H     -379.078    -341.731    -256.523
  H     -380.125    -340.765    -255.461
  H     -378.355    -340.517    -255.446
  H     -386.616    -335.170    -260.794
  H     -385.738    -334.076    -261.835
  H     -385.602    -333.928    -260.100

 3  4  5  6  7  8  9  10  11  12  23  26  30  31 0
 6-311+G(2d,p)
 ****
 33  35  36  37  38 0
 6-311+G(2d,p)
 ****
 1  2  13  14  15  16  17  18  19  20  21  22  24  25 0
 3-21G
 ****
 27  28  29  32  34  39  40  41  42  43  44  45  46  47  48  49 0
 3-21G
 ****


