%nproc=1
%NoSave
%Mem=1900MB
#P OB98/GEN NMR

erre ene a

0 1
  C      -20.895    -668.679    -213.368
  O      -21.407    -669.404    -212.274
  H      -21.678    -668.594    -214.131
  H      -20.040    -669.205    -213.803
  H      -20.597    -667.674    -213.057
  P      -20.402    -669.657    -211.047
  C      -22.061    -669.605    -209.053
  O      -21.046    -668.920    -209.777
  C      -23.360    -668.792    -209.052
  O      -23.838    -668.581    -210.407
  C      -24.498    -669.429    -208.278
  O      -24.396    -669.163    -206.891
  C      -25.715    -668.754    -208.911
  O      -25.925    -667.440    -208.362
  C      -25.288    -668.671    -210.389
  N      -29.295    -670.801    -212.594
  C      -29.197    -669.613    -211.895
  N      -30.337    -668.923    -211.704
  N      -28.072    -669.157    -211.409
  C      -27.017    -669.970    -211.641
  C      -26.991    -671.156    -212.339
  C      -28.241    -671.641    -212.894
  O      -28.383    -672.649    -213.581
  N      -25.721    -671.693    -212.377
  C      -24.987    -670.841    -211.679
  N      -25.733    -669.797    -211.195
  O      -19.137    -668.738    -211.406
  O      -19.996    -671.077    -210.831
  H      -26.454    -667.506    -207.555
  H      -18.332    -669.149    -211.046
  H      -30.192    -671.088    -212.962
  H      -23.929    -670.945    -211.493
  H      -25.676    -667.760    -210.869
  H      -26.624    -669.325    -208.744
  H      -31.244    -669.367    -211.757
  H      -24.542    -670.519    -208.470
  H      -30.272    -668.061    -211.176
  H      -23.119    -667.798    -208.636
  H      -21.732    -669.757    -208.026
  H      -22.233    -670.581    -209.525
  P      -23.660    -670.267    -205.972
  C      -22.260    -668.588    -204.565
  O      -22.259    -669.626    -205.535
  O      -23.238    -671.401    -207.016
  O      -24.503    -670.802    -204.861
  H      -23.038    -672.235    -206.547
  H      -21.255    -668.269    -204.383
  H      -22.689    -668.951    -203.655
  H      -22.836    -667.762    -204.927

 6  7  8  9  10  11  12  13  14  15  26  29  33  34 0
 6-311+G(2d,p)
 ****
 36  38  39  40  41 0
 6-311+G(2d,p)
 ****
 1  2  3  4  5  16  17  18  19  20  21  22  23  24  25 0
 3-21G
 ****
 27  28  30  31  32  35  37  42  43  44  45  46  47 0
 3-21G
 ****
 48  49 0
 3-21G
 ****


