%nproc=1
%NoSave
%Mem=1900MB
#P OB98/GEN NMR

erre ene a

0 1
  C      292.239      55.870      48.987
  O      292.058      55.315      47.697
  H      291.586      56.737      49.105
  H      291.967      55.118      49.730
  H      293.281      56.162      49.140
  P      292.676      56.123      46.457
  C      294.273      54.272      45.582
  O      293.089      55.026      45.357
  C      294.306      53.040      44.682
  O      293.545      51.974      45.326
  C      293.695      53.259      43.284
  O      294.480      52.541      42.328
  C      292.325      52.612      43.389
  O      291.824      52.186      42.130
  C      292.617      51.463      44.356
  N      288.993      47.900      44.140
  C      290.219      47.971      43.579
  N      291.149      48.937      43.734
  C      290.730      49.863      44.615
  C      289.510      49.918      45.272
  C      288.608      48.878      44.989
  N      287.327      48.831      45.501
  N      289.435      51.055      46.055
  C      290.578      51.685      45.856
  N      291.391      51.007      44.990
  O      294.086      56.621      47.036
  O      291.849      57.258      45.950
  H      290.988      51.699      42.273
  H      293.969      57.474      47.494
  H      290.489      47.157      42.913
  H      290.846      52.644      46.278
  H      293.071      50.598      43.858
  H      291.615      53.318      43.826
  H      293.638      54.314      42.995
  H      295.340      52.690      44.600
  H      294.298      53.947      46.629
  H      286.716      48.105      45.161
  H      286.992      49.607      46.043
  H      295.146      54.905      45.387
  P      294.186      52.802      40.771
  C      296.418      53.984      40.136
  O      295.577      52.841      39.985
  O      293.703      54.331      40.748
  O      293.150      51.889      40.194
  H      293.042      54.465      40.044
  H      297.304      53.855      39.550
  H      296.685      54.096      41.166
  H      295.895      54.857      39.806

 6  7  8  9  10  11  12  13  14  15  25  28  32  33  34  35 0
 6-311+G(2d,p)
 ****
 36  39  40 0
 6-311+G(2d,p)
 ****
 1  2  3  4  5  16  17  18  19  20  21  22  23  24 0
 3-21G
 ****
 26  27  29  30  31  37  38  41  42  43  44  45  46  47 0
 3-21G
 ****
 48 0
 3-21G
 ****


