%nproc=1
%NoSave
%Mem=1900MB
#P OB98/GEN NMR

erre ene a

0 1
  C      124.547     223.325     138.721
  O      123.808     223.396     139.930
  P      123.704     222.054     140.805
  C      121.346     222.757     141.668
  O      122.143     221.764     141.027
  C      120.012     222.913     140.942
  O      120.240     223.143     139.534
  C      119.107     221.689     141.009
  O      118.485     221.582     142.280
  C      118.154     221.983     139.856
  O      117.165     222.943     140.266
  C      119.096     222.610     138.813
  N      118.951     221.259     133.874
  C      118.340     222.256     134.554
  N      118.411     222.535     135.876
  C      119.217     221.665     136.502
  C      119.887     220.589     135.945
  C      119.734     220.393     134.562
  N      120.353     219.374     133.873
  N      120.601     219.901     136.907
  C      120.375     220.563     138.024
  N      119.557     221.645     137.828
  O      124.202     222.526     142.251
  O      124.500     220.896     140.287
  H      116.615     223.146     139.485
  H      124.680     221.806     142.706
  H      117.714     222.917     133.962
  H      120.782     220.303     138.992
  H      118.628     223.438     138.270
  H      117.619     221.093     139.498
  H      119.678     220.775     140.797
  H      119.500     223.792     141.353
  H      121.875     223.717     141.650
  H      120.073     219.216     132.915
  H      120.819     218.654     134.408
  H      121.193     222.466     142.710
  P      118.998     220.410     143.253
  C      116.874     219.083     142.668
  O      118.293     219.092     142.664
  O      118.152     220.699     144.579
  O      120.475     220.337     143.425
  H      117.206     220.831     144.387
  H      116.530     218.160     142.197
  H      116.489     219.938     142.102
  H      116.502     219.117     143.695
  H      124.537     224.281     138.240
  H      124.105     222.596     138.075
  H      125.557     223.045     138.936

 3  4  5  6  7  8  9  10  11  12  22  25  29  30  31  32 0
 6-311+G(2d,p)
 ****
 33  36  37 0
 6-311+G(2d,p)
 ****
 1  2  13  14  15  16  17  18  19  20  21  23  24  26 0
 3-21G
 ****
 27  28  34  35  38  39  40  41  42  43  44  45  46  47  48 0
 3-21G
 ****


