%nproc=1
%NoSave
%Mem=1900MB
#P OB98/GEN NMR

erre ene a

0 1
  C     -437.609    -415.635     -53.560
  O     -437.071    -416.613     -54.437
  P     -437.818    -416.847     -55.840
  C     -435.632    -417.605     -57.105
  O     -436.939    -417.931     -56.623
  C     -434.818    -418.884     -57.302
  O     -434.425    -419.422     -56.024
  C     -435.560    -420.006     -58.007
  O     -435.641    -419.795     -59.405
  C     -434.714    -421.220     -57.601
  O     -433.542    -421.309     -58.422
  C     -434.328    -420.861     -56.156
  N     -435.148    -421.535     -55.147
  C     -434.863    -422.879     -54.924
  O     -433.976    -423.492     -55.523
  N     -435.646    -423.513     -53.996
  C     -436.711    -422.960     -53.335
  O     -437.409    -423.586     -52.544
  C     -436.986    -421.549     -53.638
  C     -436.199    -420.911     -54.513
  O     -437.513    -415.460     -56.573
  O     -439.267    -417.177     -55.676
  H     -436.693    -415.050     -56.252
  H     -433.020    -422.067     -58.087
  H     -435.444    -424.482     -53.801
  H     -437.825    -421.080     -53.138
  H     -436.398    -419.871     -54.757
  H     -433.279    -421.112     -55.967
  H     -435.261    -422.161     -57.700
  H     -436.569    -420.108     -57.595
  H     -433.902    -418.622     -57.852
  H     -435.139    -416.960     -56.377
  H     -435.733    -417.058     -58.046
  P     -436.442    -420.896     -60.255
  C     -437.812    -419.317     -61.829
  O     -436.748    -420.234     -61.685
  O     -437.859    -420.899     -59.515
  O     -435.763    -422.227     -60.303
  H     -438.174    -420.004     -59.287
  H     -437.642    -418.722     -62.730
  H     -437.878    -418.644     -60.974
  H     -438.752    -419.866     -61.944
  H     -437.015    -415.587     -52.672
  H     -438.613    -415.900     -53.303
  H     -437.604    -414.681     -54.044

 3  4  5  6  7  8  9  10  11  12  13  24  28  29  30  31  32 0
 6-311+G(2d,p)
 ****
 33  34 0
 6-311+G(2d,p)
 ****
 1  2  14  15  16  17  18  19  20  21  22  23  25  26  27 0
 3-21G
 ****
 35  36  37  38  39  40  41  42  43  44  45 0
 3-21G
 ****


