%nproc=1
%NoSave
%Mem=1900MB
#P OB98/GEN NMR

erre ene a

0 1
  C      281.613    -207.222     240.943
  O      281.943    -205.919     240.499
  H      280.526    -207.327     240.929
  H      281.973    -207.377     241.965
  H      282.052    -207.963     240.272
  P      283.506    -205.543     240.481
  C      283.440    -205.247     237.919
  O      283.998    -205.973     239.009
  C      283.586    -206.047     236.619
  O      282.837    -207.279     236.751
  C      283.053    -205.304     235.387
  O      283.903    -205.580     234.268
  C      281.690    -205.941     235.154
  O      281.270    -205.840     233.800
  C      281.924    -207.370     235.645
  N      277.943    -210.127     234.029
  C      279.092    -209.763     233.423
  N      280.122    -209.039     233.935
  C      279.871    -208.719     235.229
  C      278.752    -209.030     235.969
  C      277.739    -209.755     235.314
  N      276.550    -210.116     235.918
  N      278.857    -208.495     237.245
  C      280.027    -207.889     237.261
  N      280.678    -207.996     236.058
  O      284.321    -206.083     241.612
  O      283.457    -203.945     240.375
  H      280.542    -206.480     233.655
  H      282.792    -203.655     239.722
  H      279.209    -210.089     232.396
  H      280.452    -207.367     238.114
  H      282.370    -208.014     234.869
  H      280.944    -205.435     235.781
  H      282.984    -204.227     235.540
  H      284.643    -206.324     236.491
  H      283.948    -204.282     237.815
  H      275.888    -210.650     235.376
  H      276.398    -209.861     236.884
  H      282.385    -205.065     238.137
  P      284.908    -204.441     233.788
  C      287.007    -205.717     234.583
  O      286.249    -204.514     234.675
  O      284.330    -203.070     233.623
  O      285.416    -205.004     232.363
  H      285.521    -204.246     231.749
  H      287.868    -205.645     235.214
  H      287.318    -205.866     233.570
  H      286.404    -206.543     234.896

 6  7  8  9  10  11  12  13  14  15  25  28  32  33  34  35 0
 6-311+G(2d,p)
 ****
 36  39  40 0
 6-311+G(2d,p)
 ****
 1  2  3  4  5  16  17  18  19  20  21  22  23  24 0
 3-21G
 ****
 26  27  29  30  31  37  38  41  42  43  44  45  46  47 0
 3-21G
 ****
 48 0
 3-21G
 ****


