%nproc=1
%NoSave
%Mem=1900MB
#P OB98/GEN NMR

erre ene a

0 1
  C     -595.907    -208.661     859.889
  O     -596.356    -207.337     860.105
  P     -596.824    -206.434     858.867
  C     -599.350    -206.321     859.336
  O     -598.121    -205.603     859.314
  C     -600.369    -205.606     860.213
  O     -600.026    -205.730     861.613
  C     -600.467    -204.112     859.958
  O     -601.124    -203.818     858.742
  C     -601.193    -203.648     861.214
  O     -602.613    -203.881     861.088
  C     -600.597    -204.588     862.288
  N     -599.619    -203.909     863.121
  C     -600.129    -203.200     864.210
  O     -601.341    -203.091     864.381
  N     -599.240    -202.605     865.079
  C     -597.964    -202.625     864.814
  N     -597.134    -202.072     865.733
  C     -597.406    -203.231     863.584
  C     -598.276    -203.868     862.805
  O     -596.959    -207.159     857.567
  O     -595.693    -205.300     858.769
  H     -595.383    -205.244     857.848
  H     -603.018    -203.601     861.931
  H     -596.349    -203.158     863.382
  H     -597.956    -204.362     861.896
  H     -601.401    -204.982     862.927
  H     -601.060    -202.585     861.408
  H     -599.460    -203.678     859.949
  H     -601.349    -206.088     860.054
  H     -597.546    -201.691     866.574
  H     -599.159    -207.327     859.729
  H     -596.147    -202.326     865.790
  H     -599.720    -206.421     858.310
  P     -601.110    -202.284     858.265
  C     -599.196    -202.456     856.525
  O     -600.582    -202.251     856.753
  O     -599.913    -201.639     859.107
  O     -602.393    -201.552     858.506
  H     -600.138    -200.728     859.356
  H     -599.059    -202.746     855.480
  H     -598.797    -203.242     857.172
  H     -598.660    -201.523     856.706
  H     -595.639    -209.104     860.825
  H     -595.054    -208.647     859.244
  H     -596.689    -209.233     859.435

 3  4  5  6  7  8  9  10  11  12  13  24  27  28  29  30  32 0
 6-311+G(2d,p)
 ****
 34  35 0
 6-311+G(2d,p)
 ****
 1  2  14  15  16  17  18  19  20  21  22  23  25  26 0
 3-21G
 ****
 31  33  36  37  38  39  40  41  42  43  44  45  46 0
 3-21G
 ****


