%nproc=1
%NoSave
%Mem=1900MB
#P OB98/GEN NMR

erre ene a

0 1
  C      115.349     -65.455      32.979
  O      116.577     -65.804      33.621
  P      116.537     -66.532      35.046
  C      116.539     -64.531      36.673
  O      115.780     -65.581      36.096
  C      115.689     -63.710      37.656
  O      116.553     -62.871      38.470
  C      114.673     -62.800      36.953
  O      113.347     -62.943      37.461
  C      115.287     -61.417      37.081
  O      114.329     -60.373      36.988
  C      116.074     -61.517      38.393
  N      117.164     -60.539      38.455
  C      116.801     -59.211      38.640
  O      115.631     -58.831      38.675
  N      117.832     -58.312      38.723
  C      119.155     -58.598      38.561
  O      120.037     -57.750      38.596
  C      119.475     -60.011      38.304
  C      118.480     -60.900      38.263
  O      117.832     -67.096      35.525
  O      115.462     -67.706      34.816
  H      114.717     -59.561      37.381
  H      115.776     -68.498      35.295
  H      117.585     -57.346      38.875
  H      120.512     -60.271      38.148
  H      118.685     -61.943      38.062
  H      115.423     -61.333      39.255
  H      115.997     -61.278      36.256
  H      114.576     -63.055      35.892
  H      115.176     -64.419      38.313
  H      116.904     -63.871      35.886
  H      117.429     -64.950      37.157
  P      112.290     -64.026      36.944
  C      110.982     -62.469      35.336
  O      111.815     -63.604      35.476
  O      111.186     -64.360      37.890
  O      113.199     -65.319      36.680
  H      112.718     -66.115      36.974
  H      110.463     -62.534      34.377
  H      111.597     -61.564      35.344
  H      110.242     -62.418      36.138
  H      115.558     -64.980      32.043
  H      114.798     -64.784      33.604
  H      114.772     -66.340      32.809

 3  4  5  6  7  8  9  10  11  12  13  23  28  29  30  31  32 0
 6-311+G(2d,p)
 ****
 33  34 0
 6-311+G(2d,p)
 ****
 1  2  14  15  16  17  18  19  20  21  22  24  25  26  27 0
 3-21G
 ****
 35  36  37  38  39  40  41  42  43  44  45 0
 3-21G
 ****


