%nproc=1
%NoSave
%Mem=1900MB
#P OB98/GEN NMR

erre ene a

0 1
  C     -176.895      29.309       5.042
  O     -177.769      30.360       4.670
  P     -177.333      31.330       3.470
  C     -175.566      32.688       4.865
  O     -176.787      32.679       4.147
  C     -175.520      33.881       5.823
  O     -174.241      33.879       6.518
  C     -175.672      35.249       5.145
  O     -176.400      36.093       6.048
  C     -174.233      35.722       5.018
  O     -174.129      37.131       4.877
  C     -173.635      35.170       6.315
  N     -172.178      35.053       6.280
  C     -171.454      35.577       7.347
  O     -171.969      36.153       8.306
  N     -170.092      35.444       7.265
  C     -169.394      34.916       6.219
  O     -168.173      34.837       6.193
  C     -170.208      34.419       5.099
  C     -171.538      34.499       5.185
  O     -178.758      31.743       2.873
  O     -176.400      30.698       2.496
  H     -179.444      31.836       3.557
  H     -174.607      37.390       4.065
  H     -169.550      35.785       8.047
  H     -169.690      34.003       4.241
  H     -172.157      34.144       4.371
  H     -173.931      35.802       7.163
  H     -173.774      35.258       4.135
  H     -176.197      35.187       4.188
  H     -176.301      33.742       6.584
  H     -174.733      32.766       4.159
  H     -175.459      31.743       5.409
  P     -177.632      36.948       5.460
  C     -176.926      38.781       7.193
  O     -177.964      38.100       6.520
  O     -178.831      35.902       5.681
  O     -177.482      37.367       4.034
  H     -178.842      35.523       6.575
  H     -177.321      39.718       7.594
  H     -176.099      39.011       6.520
  H     -176.564      38.168       8.023
  H     -177.325      28.757       5.851
  H     -175.956      29.718       5.350
  H     -176.744      28.658       4.206

 3  4  5  6  7  8  9  10  11  12  13  24  28  29  30  31  32 0
 6-311+G(2d,p)
 ****
 33  34 0
 6-311+G(2d,p)
 ****
 1  2  14  15  16  17  18  19  20  21  22  23  25  26  27 0
 3-21G
 ****
 35  36  37  38  39  40  41  42  43  44  45 0
 3-21G
 ****


