%nproc=1
%NoSave
%Mem=1900MB
#P OB98/GEN NMR

erre ene a

0 1
  C      -19.960      24.577     -26.671
  O      -20.643      24.036     -25.553
  P      -21.956      24.804     -25.039
  C      -24.313      25.093     -26.091
  O      -22.913      25.000     -26.312
  C      -24.981      25.943     -27.173
  O      -24.614      27.337     -26.968
  C      -24.586      25.572     -28.611
  O      -25.743      25.790     -29.426
  C      -23.500      26.589     -28.914
  O      -23.215      26.735     -30.294
  C      -24.076      27.819     -28.220
  N      -23.072      32.169     -25.733
  C      -24.136      31.336     -25.696
  N      -24.329      30.190     -26.381
  C      -23.271      29.923     -27.165
  C      -22.127      30.686     -27.322
  C      -22.045      31.861     -26.558
  N      -20.961      32.714     -26.605
  N      -21.272      30.107     -28.235
  C      -21.890      29.012     -28.627
  N      -23.090      28.848     -27.992
  O      -21.420      26.282     -24.753
  O      -22.610      24.200     -23.835
  H      -23.007      25.865     -30.686
  H      -21.834      26.659     -23.953
  H      -24.940      31.629     -25.026
  H      -21.522      28.317     -29.369
  H      -24.902      28.262     -28.790
  H      -22.570      26.271     -28.428
  H      -24.264      24.532     -28.717
  H      -26.068      25.870     -27.048
  H      -24.496      25.566     -25.121
  H      -21.086      33.620     -26.178
  H      -20.307      32.585     -27.367
  H      -24.744      24.087     -26.060
  P      -25.973      24.857     -30.711
  C      -26.837      22.447     -30.919
  O      -26.188      23.391     -30.090
  O      -24.480      24.750     -31.280
  O      -26.982      25.340     -31.694
  H      -23.849      24.493     -30.585
  H      -26.828      21.477     -30.415
  H      -26.313      22.355     -31.874
  H      -27.875      22.749     -31.086
  H      -19.111      23.967     -26.900
  H      -19.634      25.570     -26.443
  H      -20.619      24.602     -27.514

 3  4  5  6  7  8  9  10  11  12  22  25  29  30  31  32 0
 6-311+G(2d,p)
 ****
 33  36  37 0
 6-311+G(2d,p)
 ****
 1  2  13  14  15  16  17  18  19  20  21  23  24  26 0
 3-21G
 ****
 27  28  34  35  38  39  40  41  42  43  44  45  46  47  48 0
 3-21G
 ****


