%nproc=1
%NoSave
%Mem=1900MB
#P OB98/GEN NMR

erre ene a

0 1
  C       68.789     -27.388    -165.398
  O       68.992     -27.288    -166.824
  P       68.250     -26.118    -167.640
  C       68.228     -23.794    -166.453
  O       68.914     -24.697    -167.311
  C       69.018     -22.491    -166.264
  O       70.429     -22.790    -166.030
  C       68.962     -21.531    -167.466
  O       69.025     -20.194    -166.939
  C       70.246     -21.859    -168.210
  O       70.654     -20.829    -169.101
  C       71.197     -22.081    -167.027
  N       72.414     -22.818    -167.366
  C       73.254     -22.277    -168.335
  O       73.017     -21.258    -168.971
  N       74.407     -22.984    -168.586
  C       74.766     -24.172    -168.009
  O       75.799     -24.763    -168.299
  C       73.830     -24.708    -167.017
  C       72.718     -24.023    -166.744
  O       66.842     -26.022    -166.875
  O       68.026     -26.390    -169.096
  H       71.501     -21.113    -169.494
  H       66.115     -25.982    -167.525
  H       75.034     -22.602    -169.271
  H       74.080     -25.643    -166.529
  H       72.013     -24.396    -166.005
  H       71.466     -21.118    -166.591
  H       70.099     -22.770    -168.800
  H       68.062     -21.657    -168.075
  H       68.647     -21.994    -165.356
  H       68.083     -24.265    -165.472
  H       67.245     -23.576    -166.881
  P       67.790     -19.200    -167.231
  C       66.892     -18.932    -164.780
  O       67.546     -18.353    -165.894
  O       66.572     -20.251    -167.229
  O       67.902     -18.432    -168.504
  H       66.617     -20.876    -166.486
  H       67.231     -19.965    -164.618
  H       65.810     -18.925    -164.938
  H       67.121     -18.349    -163.891
  H       69.351     -28.214    -165.015
  H       67.749     -27.539    -165.195
  H       69.116     -26.485    -164.927

 3  4  5  6  7  8  9  10  11  12  13  23  28  29  30  31  32 0
 6-311+G(2d,p)
 ****
 33  34 0
 6-311+G(2d,p)
 ****
 1  2  14  15  16  17  18  19  20  21  22  24  25  26 0
 3-21G
 ****
 27  35  36  37  38  39  40  41  42  43  44  45 0
 3-21G
 ****


