%nproc=1
%NoSave
%Mem=1900MB
#P OB98/GEN NMR

erre ene a

0 1
  C      202.431    -891.743     736.985
  O      201.294    -892.573     736.845
  H      202.616    -891.573     738.051
  H      202.257    -890.773     736.503
  H      203.309    -892.223     736.553
  P      200.783    -892.863     735.348
  C      200.397    -895.063     734.026
  O      201.160    -894.383     735.014
  C      200.878    -896.513     733.927
  O      202.213    -896.553     733.387
  C      200.959    -897.223     735.271
  O      199.697    -897.683     735.720
  C      201.885    -898.383     734.909
  O      201.176    -899.483     734.328
  C      202.847    -897.733     733.894
  N      204.153    -897.453     734.488
  C      205.128    -898.443     734.319
  O      204.914    -899.493     733.710
  N      206.326    -898.203     734.898
  C      206.650    -897.113     735.667
  O      207.745    -896.983     736.216
  C      205.595    -896.113     735.827
  C      204.407    -896.323     735.245
  O      201.793    -892.013     734.454
  O      199.362    -892.503     735.092
  H      201.341    -891.213     734.107
  H      200.546    -899.793     735.015
  H      207.052    -898.913     734.791
  H      205.801    -895.243     736.432
  H      203.595    -895.603     735.348
  H      203.005    -898.413     733.035
  H      202.396    -898.753     735.800
  H      201.453    -896.583     736.005
  H      200.214    -897.053     733.240
  H      200.527    -894.583     733.052
  H      199.336    -895.013     734.297
  P      199.617    -898.273     737.217
  C      197.571    -898.963     738.714
  O      198.071    -898.183     737.653
  O      200.338    -897.113     738.045
  O      200.249    -899.623     737.353
  H      200.241    -896.243     737.599
  H      196.529    -898.760     738.846
  H      198.098    -898.721     739.613
  H      197.706    -900.000     738.489

 6  7  8  9  10  11  12  13  14  15  16  27  31  32  33  34  35 0
 6-311+G(2d,p)
 ****
 36  37 0
 6-311+G(2d,p)
 ****
 1  2  3  4  5  17  18  19  20  21  22  23  24  25 0
 3-21G
 ****
 26  28  29  30  38  39  40  41  42  43  44  45 0
 3-21G
 ****


