%nproc=1
%NoSave
%Mem=1900MB
#P OB98/GEN NMR

erre ene a

0 1
  C      -25.583    -147.300    -196.123
  O      -25.134    -146.352    -197.078
  P      -24.210    -146.901    -198.272
  C      -25.142    -144.990    -199.792
  O      -24.004    -145.673    -199.282
  C      -24.701    -143.686    -200.459
  O      -24.297    -142.724    -199.465
  C      -23.522    -143.840    -201.411
  O      -23.956    -144.309    -202.674
  C      -22.968    -142.417    -201.440
  O      -23.724    -141.590    -202.340
  C      -23.164    -141.968    -199.983
  N      -18.168    -141.296    -199.604
  C      -19.010    -141.122    -200.687
  N      -18.438    -140.656    -201.819
  N      -20.290    -141.373    -200.662
  C      -20.723    -141.845    -199.467
  C      -19.982    -142.076    -198.326
  C      -18.575    -141.746    -198.357
  O      -17.813    -141.790    -197.393
  N      -20.766    -142.584    -197.320
  C      -21.971    -142.623    -197.840
  N      -22.005    -142.170    -199.130
  O      -25.181    -147.897    -199.054
  O      -22.936    -147.558    -197.837
  H      -23.771    -142.022    -203.215
  H      -25.015    -148.823    -198.793
  H      -17.191    -141.071    -199.677
  H      -22.862    -142.955    -197.317
  H      -23.432    -140.906    -199.912
  H      -21.930    -142.384    -201.779
  H      -17.453    -140.462    -201.920
  H      -22.771    -144.518    -200.985
  H      -19.039    -140.520    -202.626
  H      -25.571    -143.270    -200.992
  H      -25.824    -144.760    -198.971
  H      -25.656    -145.638    -200.511
  P      -23.144    -145.528    -203.331
  C      -25.075    -146.227    -204.929
  O      -23.745    -145.757    -204.798
  O      -23.665    -146.800    -202.502
  O      -21.663    -145.399    -203.255
  H      -22.933    -147.434    -202.384
  H      -25.494    -145.845    -205.864
  H      -25.703    -145.902    -204.094
  H      -25.062    -147.321    -204.964
  H      -26.184    -146.808    -195.387
  H      -24.739    -147.755    -195.648
  H      -26.164    -148.053    -196.614

 3  4  5  6  7  8  9  10  11  12  23  26  30  31 0
 6-311+G(2d,p)
 ****
 33  35  36  37  38 0
 6-311+G(2d,p)
 ****
 1  2  13  14  15  16  17  18  19  20  21  22  24  25 0
 3-21G
 ****
 27  28  29  32  34  39  40  41  42  43  44  45  46  47  48  49 0
 3-21G
 ****


