%nproc=1
%NoSave
%Mem=1900MB
#P OB98/GEN NMR

erre ene a

0 1
  C      -74.702      49.186     -19.840
  O      -74.876      49.959     -18.670
  H      -73.807      49.537     -20.360
  H      -75.560      49.307     -20.505
  H      -74.571      48.129     -19.591
  P      -76.047      49.564     -17.650
  C      -77.565      51.566     -18.227
  O      -77.410      50.151     -18.257
  C      -78.973      51.923     -17.758
  O      -79.944      51.573     -18.771
  C      -79.407      51.188     -16.495
  O      -78.788      51.741     -15.351
  C      -80.915      51.374     -16.569
  O      -81.297      52.684     -16.121
  C      -81.170      51.226     -18.089
  N      -81.618      49.883     -18.462
  C      -82.820      49.461     -17.903
  O      -83.487      50.151     -17.136
  N      -83.212      48.187     -18.224
  C      -82.485      47.291     -18.955
  O      -82.767      46.099     -19.034
  C      -81.262      47.816     -19.579
  C      -80.882      49.064     -19.295
  O      -75.798      49.899     -16.217
  O      -76.213      47.985     -17.862
  H      -75.762      47.513     -17.137
  H      -80.706      53.315     -16.576
  H      -84.057      47.854     -17.785
  H      -80.693      47.157     -20.219
  H      -79.969      49.463     -19.721
  H      -81.932      51.944     -18.421
  H      -81.455      50.655     -15.951
  H      -79.178      50.119     -16.583
  H      -79.017      53.009     -17.609
  H      -77.410      51.953     -19.240
  H      -76.811      51.995     -17.561
  P      -78.401      50.828     -14.095
  C      -80.655      51.416     -13.025
  O      -79.758      50.370     -13.378
  O      -77.382      51.414     -13.175
  O      -77.863      49.467     -14.748
  H      -76.981      49.264     -14.383
  H      -81.522      50.999     -12.556
  H      -80.947      51.948     -13.906
  H      -80.171      52.088     -12.347

 6  7  8  9  10  11  12  13  14  15  16  27  31  32  33  34  35 0
 6-311+G(2d,p)
 ****
 36  37 0
 6-311+G(2d,p)
 ****
 1  2  3  4  5  17  18  19  20  21  22  23  24  25 0
 3-21G
 ****
 26  28  29  30  38  39  40  41  42  43  44  45 0
 3-21G
 ****


