%nproc=1
%NoSave
%Mem=1900MB
#P OB98/GEN NMR

erre ene a

0 1
  C     -372.904     -14.938     291.554
  O     -372.551     -14.090     290.486
  H     -372.289     -15.843     291.512
  H     -373.957     -15.226     291.451
  H     -372.751     -14.449     292.519
  P     -373.026     -12.558     290.569
  C     -370.863     -11.459     291.503
  O     -371.708     -11.658     290.375
  C     -369.743     -10.471     291.156
  O     -368.651     -11.215     290.524
  C     -370.164      -9.344     290.188
  O     -369.483      -8.145     290.560
  C     -369.599      -9.821     288.865
  O     -369.389      -8.750     287.949
  C     -368.307     -10.500     289.324
  N     -366.037     -10.509     284.842
  C     -366.266      -9.476     285.721
  N     -365.899      -8.233     285.339
  N     -366.831      -9.646     286.898
  C     -367.131     -10.934     287.171
  C     -366.957     -12.039     286.379
  C     -366.346     -11.854     285.076
  O     -366.127     -12.710     284.246
  N     -367.458     -13.169     287.003
  C     -367.955     -12.739     288.143
  N     -367.781     -11.392     288.300
  O     -373.373     -12.389     292.130
  O     -374.182     -12.197     289.697
  H     -370.238      -8.286     287.810
  H     -374.327     -12.535     292.271
  H     -365.615     -10.335     283.940
  H     -368.447     -13.343     288.884
  H     -367.522      -9.786     289.570
  H     -370.278     -10.543     288.392
  H     -365.433      -8.030     284.463
  H     -371.235      -9.164     290.155
  H     -366.031      -7.474     285.989
  H     -369.344     -10.047     292.095
  H     -370.425     -12.418     291.794
  H     -371.465     -11.085     292.332
  P     -370.256      -6.751     290.393
  C     -370.097      -5.918     292.853
  O     -369.722      -5.721     291.498
  O     -371.732      -7.095     290.910
  O     -370.271      -6.229     288.989
  H     -372.395      -6.588     290.385
  H     -369.662      -5.151     293.459
  H     -369.749      -6.874     293.184
  H     -371.163      -5.877     292.938

 6  7  8  9  10  11  12  13  14  15  26  29  33  34 0
 6-311+G(2d,p)
 ****
 36  38  39  40  41 0
 6-311+G(2d,p)
 ****
 1  2  3  4  5  16  17  18  19  20  21  22  23  24  25 0
 3-21G
 ****
 27  28  30  31  32  35  37  42  43  44  45  46  47 0
 3-21G
 ****
 48  49 0
 3-21G
 ****


