%nproc=1
%NoSave
%Mem=1900MB
#P OB98/GEN NMR

erre ene a

0 1
  C      163.715    1258.215     148.072
  O      163.064    1257.504     149.110
  P      161.607    1257.959     149.594
  C      160.355    1256.122     148.291
  O      160.665    1256.664     149.580
  C      160.466    1254.602     148.298
  O      161.815    1254.210     148.625
  C      159.584    1253.918     149.335
  O      158.239    1253.871     148.890
  C      160.258    1252.553     149.445
  O      159.848    1251.690     148.379
  C      161.748    1252.927     149.296
  N      164.718    1250.293     152.513
  C      164.047    1249.931     151.395
  N      163.236    1250.674     150.607
  C      163.150    1251.929     151.093
  C      163.741    1252.451     152.246
  C      164.586    1251.571     152.960
  N      165.337    1251.960     154.055
  N      163.372    1253.762     152.423
  C      162.569    1254.046     151.418
  N      162.441    1252.979     150.564
  O      161.042    1259.164     148.891
  O      161.801    1258.243     151.151
  H      160.401    1250.866     148.437
  H      161.579    1259.175     151.342
  H      164.184    1248.892     151.088
  H      162.046    1254.993     151.267
  H      162.281    1252.218     148.665
  H      160.036    1252.041     150.385
  H      159.657    1254.431     150.295
  H      160.247    1254.225     147.292
  H      161.024    1256.552     147.547
  H      166.004    1251.307     154.407
  H      165.479    1252.958     154.222
  H      159.320    1256.418     148.028
  P      157.059    1254.318     149.898
  C      157.102    1256.863     150.104
  O      156.584    1255.762     149.396
  O      157.368    1254.207     151.343
  O      155.830    1253.375     149.467
  H      155.278    1253.203     150.251
  H      156.558    1257.007     151.050
  H      156.936    1257.788     149.499
  H      158.169    1256.767     150.286
  H      164.671    1257.774     147.883
  H      163.845    1259.236     148.366
  H      163.120    1258.173     147.183

 3  4  5  6  7  8  9  10  11  12  22  25  29  30  31  32 0
 6-311+G(2d,p)
 ****
 33  36  37 0
 6-311+G(2d,p)
 ****
 1  2  13  14  15  16  17  18  19  20  21  23  24  26 0
 3-21G
 ****
 27  28  34  35  38  39  40  41  42  43  44  45  46  47  48 0
 3-21G
 ****


