%nproc=1
%NoSave
%Mem=1900MB
#P OB98/GEN NMR

erre ene a

0 1
  C       92.670     105.927     154.140
  O       92.373     106.750     153.026
  P       91.702     108.180     153.289
  C       89.267     107.304     153.048
  O       90.232     107.926     153.880
  C       88.014     108.176     152.940
  O       87.297     108.149     154.212
  C       88.303     109.647     152.610
  O       87.219     110.129     151.803
  C       88.253     110.306     153.975
  O       88.050     111.709     153.913
  C       87.101     109.521     154.611
  N       87.054     109.658     156.065
  C       86.561     110.852     156.579
  O       86.166     111.789     155.886
  N       86.587     110.971     157.943
  C       87.128     110.075     158.818
  O       87.227     110.293     160.019
  C       87.637     108.831     158.217
  C       87.577     108.681     156.893
  O       91.429     108.734     151.813
  O       92.536     109.121     154.094
  H       88.214     112.069     154.803
  H       92.120     109.373     151.556
  H       86.222     111.825     158.334
  H       88.054     108.089     158.885
  H       87.962     107.783     156.422
  H       86.143     109.844     154.184
  H       89.197     110.126     154.502
  H       89.257     109.802     152.098
  H       87.348     107.738     152.185
  H       88.995     106.337     153.476
  H       89.697     107.122     152.057
  P       87.569     110.718     150.348
  C       87.338     113.214     151.089
  O       88.161     112.187     150.578
  O       86.097     110.980     149.771
  O       88.385     109.792     149.507
  H       85.505     111.383     150.428
  H       86.608     112.826     151.805
  H       86.811     113.700     150.264
  H       87.966     113.953     151.592
  H       93.111     105.013     153.801
  H       91.769     105.711     154.674
  H       93.355     106.435     154.786

 3  4  5  6  7  8  9  10  11  12  13  23  28  29  30  31  32 0
 6-311+G(2d,p)
 ****
 33  34 0
 6-311+G(2d,p)
 ****
 1  2  14  15  16  17  18  19  20  21  22  24  25  26 0
 3-21G
 ****
 27  35  36  37  38  39  40  41  42  43  44  45 0
 3-21G
 ****


