%nproc=1
%NoSave
%Mem=1900MB
#P OB98/GEN NMR

erre ene a

0 1
  C       66.850    -460.763     140.098
  O       66.748    -461.454     138.867
  H       66.535    -461.410     140.925
  H       67.891    -460.472     140.254
  H       66.230    -459.861     140.075
  P       65.305    -462.057     138.508
  C       66.386    -464.414     138.375
  O       65.347    -463.610     138.920
  C       66.939    -465.350     139.442
  O       67.584    -464.588     140.488
  C       65.896    -466.200     140.152
  O       65.497    -467.320     139.368
  C       66.671    -466.631     141.390
  O       67.537    -467.734     141.058
  C       67.510    -465.381     141.702
  N       68.271    -463.491     146.418
  C       69.032    -464.296     145.632
  N       68.761    -464.767     144.399
  C       67.568    -464.316     143.967
  C       66.684    -463.493     144.652
  C       67.074    -463.082     145.943
  N       66.285    -462.280     146.738
  N       65.567    -463.235     143.890
  C       65.770    -463.879     142.763
  N       66.962    -464.557     142.763
  O       65.309    -462.102     136.906
  O       64.140    -461.287     139.031
  H       68.037    -467.467     140.261
  H       64.409    -461.903     136.582
  H       69.989    -464.594     146.055
  H       65.085    -463.884     141.921
  H       68.535    -465.645     141.973
  H       66.028    -466.954     142.208
  H       65.033    -465.596     140.456
  H       67.705    -465.986     138.969
  H       67.191    -463.765     138.013
  H       66.694    -461.860     147.554
  H       65.388    -461.971     146.367
  H       65.986    -464.988     137.535
  P       63.937    -467.448     138.994
  C       63.902    -469.900     139.850
  O       63.359    -468.587     139.963
  O       63.972    -468.162     137.563
  O       63.190    -466.160     138.960
  H       63.159    -467.940     137.065
  H       63.422    -470.546     140.555
  H       64.952    -469.870     140.052
  H       63.739    -470.269     138.859

 6  7  8  9  10  11  12  13  14  15  25  28  32  33  34  35 0
 6-311+G(2d,p)
 ****
 36  39  40 0
 6-311+G(2d,p)
 ****
 1  2  3  4  5  16  17  18  19  20  21  22  23  24 0
 3-21G
 ****
 26  27  29  30  31  37  38  41  42  43  44  45  46  47  48 0
 3-21G
 ****


