%nproc=1
%NoSave
%Mem=1900MB
#P OB98/GEN NMR

erre ene a

0 1
  C      -91.353    -323.076      22.166
  O      -92.051    -321.846      22.225
  H      -91.985    -323.816      21.671
  H      -91.124    -323.427      23.178
  H      -90.429    -322.959      21.595
  P      -91.305    -320.640      22.977
  C      -89.608    -320.310      21.047
  O      -89.799    -320.622      22.419
  C      -89.080    -318.887      20.891
  O      -87.806    -318.736      21.554
  C      -88.878    -318.446      19.447
  O      -90.093    -317.984      18.881
  C      -87.849    -317.336      19.615
  O      -88.479    -316.108      20.038
  C      -86.954    -317.896      20.728
  N      -82.786    -317.742      17.877
  C      -83.774    -316.797      18.063
  N      -83.650    -315.645      17.367
  N      -84.801    -316.966      18.856
  C      -84.828    -318.184      19.444
  C      -83.912    -319.207      19.337
  C      -82.753    -318.985      18.499
  O      -81.804    -319.752      18.358
  N      -84.281    -320.285      20.102
  C      -85.431    -319.925      20.644
  N      -85.806    -318.661      20.267
  O      -91.134    -321.184      24.475
  O      -92.020    -319.331      22.957
  H      -89.097    -316.300      20.763
  H      -91.266    -320.440      25.095
  H      -82.002    -317.549      17.282
  H      -86.022    -320.536      21.316
  H      -86.559    -317.103      21.374
  H      -87.338    -317.113      18.678
  H      -83.063    -315.577      16.548
  H      -88.444    -319.254      18.843
  H      -84.412    -314.983      17.451
  H      -89.786    -318.219      21.401
  H      -90.565    -320.402      20.523
  H      -88.892    -321.018      20.613
  P      -90.228    -317.964      17.284
  C      -92.418    -319.352      17.107
  O      -91.024    -319.288      16.839
  O      -88.727    -318.246      16.794
  O      -90.744    -316.685      16.717
  H      -88.329    -317.422      16.460
  H      -92.806    -320.285      16.756
  H      -92.915    -318.548      16.605
  H      -92.583    -319.271      18.161

 6  7  8  9  10  11  12  13  14  15  26  29  33  34 0
 6-311+G(2d,p)
 ****
 36  38  39  40  41 0
 6-311+G(2d,p)
 ****
 1  2  3  4  5  16  17  18  19  20  21  22  23  24  25 0
 3-21G
 ****
 27  28  30  31  32  35  37  42  43  44  45  46  47 0
 3-21G
 ****
 48  49 0
 3-21G
 ****


