%nproc=1
%NoSave
%Mem=1900MB
#P OB98/GEN NMR

erre ene a

0 1
  C     -184.910     425.475     305.436
  O     -183.782     425.813     304.625
  P     -183.675     427.276     303.993
  C     -183.536     428.934     305.971
  O     -182.823     428.217     304.970
  C     -182.771     430.204     306.356
  O     -183.572     431.078     307.181
  C     -181.527     429.913     307.194
  O     -180.454     429.270     306.540
  C     -181.249     431.262     307.833
  O     -180.517     432.119     306.953
  C     -182.679     431.808     308.056
  N     -183.111     431.712     309.450
  C     -183.669     432.865     309.994
  O     -183.766     433.923     309.381
  N     -184.082     432.766     311.296
  C     -183.963     431.667     312.097
  O     -184.331     431.643     313.265
  C     -183.342     430.489     311.474
  C     -182.949     430.563     310.198
  O     -184.953     427.864     303.497
  O     -182.657     427.056     302.765
  H     -179.673     431.680     306.757
  H     -182.988     427.574     302.005
  H     -184.498     433.591     311.709
  H     -183.225     429.603     312.080
  H     -182.489     429.705     309.719
  H     -182.738     432.860     307.758
  H     -180.654     431.161     308.745
  H     -181.826     429.235     308.006
  H     -182.518     430.748     305.444
  H     -183.683     428.297     306.847
  H     -184.537     429.175     305.593
  P     -179.857     427.858     307.010
  C     -180.947     426.079     305.471
  O     -179.818     426.879     305.739
  O     -180.362     427.294     308.294
  O     -178.297     428.223     307.190
  H     -177.938     427.680     307.915
  H     -180.742     425.470     304.589
  H     -181.820     426.709     305.264
  H     -181.158     425.417     306.317
  H     -184.817     424.464     305.772
  H     -185.806     425.579     304.861
  H     -184.951     426.130     306.281

 3  4  5  6  7  8  9  10  11  12  13  23  28  29  30  31  32 0
 6-311+G(2d,p)
 ****
 33  34 0
 6-311+G(2d,p)
 ****
 1  2  14  15  16  17  18  19  20  21  22  24  25  26  27 0
 3-21G
 ****
 35  36  37  38  39  40  41  42  43  44  45 0
 3-21G
 ****


