%nproc=1
%NoSave
%Mem=1900MB
#P OB98/GEN NMR

erre ene a

0 1
  C      674.686     351.842     -97.451
  O      675.206     350.657     -98.019
  H      675.168     352.006     -96.483
  H      673.604     351.745     -97.291
  H      674.898     352.695     -98.097
  P      674.596     350.215     -99.434
  C      672.674     348.841     -98.362
  O      673.034     349.979     -99.143
  C      671.161     348.763     -98.197
  O      670.667     349.928     -97.508
  C      670.384     348.702     -99.513
  O      670.341     347.367    -100.006
  C      669.012     349.174     -99.068
  O      668.294     348.074     -98.461
  C      669.342     350.239     -98.007
  N      669.471     355.173     -96.615
  C      669.321     354.047     -95.892
  N      669.248     352.766     -96.331
  C      669.341     352.724     -97.676
  C      669.490     353.797     -98.543
  C      669.569     355.074     -97.963
  N      669.717     356.229     -98.706
  N      669.554     353.362     -99.849
  C      669.493     352.046     -99.762
  N      669.332     351.613     -98.472
  O      675.313     349.099    -100.126
  O      674.597     351.611    -100.221
  H      668.229     347.377     -99.142
  H      674.318     352.333     -99.629
  H      669.259     354.186     -94.817
  H      669.598     351.369    -100.601
  H      668.651     350.191     -97.153
  H      668.397     349.530     -99.900
  H      670.786     349.405    -100.257
  H      670.931     347.890     -97.567
  H      673.147     348.896     -97.378
  H      669.560     357.107     -98.228
  H      669.648     356.148     -99.711
  H      673.049     347.954     -98.881
  P      670.135     347.065    -101.569
  C      667.574     346.900    -101.416
  O      668.682     347.637    -101.913
  O      670.384     345.646    -101.957
  O      671.122     348.089    -102.302
  H      671.263     347.810    -103.220
  H      666.665     347.381    -101.711
  H      667.625     346.857    -100.348
  H      667.598     345.907    -101.815

 6  7  8  9  10  11  12  13  14  15  25  28  32  33  34  35 0
 6-311+G(2d,p)
 ****
 36  39  40 0
 6-311+G(2d,p)
 ****
 1  2  3  4  5  16  17  18  19  20  21  22  23  24 0
 3-21G
 ****
 26  27  29  30  31  37  38  41  42  43  44  45  46  47 0
 3-21G
 ****
 48 0
 3-21G
 ****


