%nproc=1
%NoSave
%Mem=1900MB
#P OB98/GEN NMR

erre ene a

0 1
  C     -153.785     606.119     565.579
  O     -152.904     606.709     566.516
  H     -154.119     605.152     565.969
  H     -153.264     605.954     564.632
  H     -154.656     606.758     565.418
  P     -152.330     608.158     566.138
  C     -149.762     608.280     565.719
  O     -151.034     607.898     565.224
  C     -148.693     608.083     564.639
  O     -148.986     608.974     563.517
  C     -147.264     608.415     565.108
  O     -146.341     607.589     564.379
  C     -147.113     609.854     564.651
  O     -145.757     610.235     564.655
  C     -147.801     609.772     563.297
  N     -146.268     613.552     560.238
  C     -145.735     612.339     560.513
  N     -146.217     611.385     561.338
  C     -147.381     611.771     561.882
  C     -148.041     612.971     561.698
  C     -147.431     613.894     560.837
  N     -147.958     615.142     560.563
  N     -149.201     613.009     562.461
  C     -149.230     611.851     563.079
  N     -148.150     611.069     562.758
  O     -151.719     608.683     567.523
  O     -153.319     609.117     565.560
  H     -145.224     609.645     564.089
  H     -152.387     609.204     568.002
  H     -144.804     612.110     560.006
  H     -150.003     611.523     563.771
  H     -147.192     609.263     562.547
  H     -147.643     610.540     565.329
  H     -147.118     608.263     566.181
  H     -148.758     607.051     564.251
  H     -149.526     607.666     566.591
  H     -149.783     609.333     566.015
  H     -147.444     615.754     559.959
  H     -148.807     615.428     561.031
  P     -145.890     606.180     565.000
  C     -144.231     606.696     566.946
  O     -145.550     606.336     566.561
  O     -144.436     605.980     564.354
  O     -146.769     605.018     564.662
  H     -144.345     605.067     564.022
  H     -144.175     606.757     568.013
  H     -143.982     607.646     566.521
  H     -143.542     605.956     566.594

 6  7  8  9  10  11  12  13  14  15  25  28  32  33  34  35 0
 6-311+G(2d,p)
 ****
 36  37  40 0
 6-311+G(2d,p)
 ****
 1  2  3  4  5  16  17  18  19  20  21  22  23  24 0
 3-21G
 ****
 26  27  29  30  31  38  39 41  42  43  44  45  46  47  48 0
 3-21G
 ****


