%nproc=1
%NoSave
%Mem=1900MB
#P OB98/GEN NMR

erre ene a

0 1
  C       87.558    -150.994    -140.364
  O       88.886    -150.938    -140.894
  P       89.983    -151.911    -140.239
  C       91.953    -150.268    -139.737
  O       91.410    -151.263    -140.587
  C       92.577    -149.132    -140.554
  O       93.728    -149.636    -141.298
  C       91.623    -148.476    -141.559
  O       91.936    -147.076    -141.578
  C       92.016    -149.121    -142.876
  O       91.628    -148.333    -143.992
  C       93.529    -149.265    -142.678
  N       94.127    -150.239    -143.589
  C       94.836    -149.737    -144.671
  O       94.906    -148.536    -144.925
  N       95.427    -150.666    -145.484
  C       95.311    -152.023    -145.364
  O       95.861    -152.811    -146.121
  C       94.455    -152.494    -144.265
  C       93.909    -151.594    -143.443
  O       89.882    -153.188    -141.193
  O       89.735    -152.177    -138.792
  H       89.724    -152.964    -142.126
  H       91.894    -148.792    -144.815
  H       95.972    -150.323    -146.258
  H       94.292    -153.560    -144.174
  H       93.257    -151.906    -142.639
  H       94.027    -148.300    -142.831
  H       91.543    -150.105    -142.965
  H       90.569    -148.617    -141.301
  H       92.953    -148.377    -139.853
  H       92.724    -150.708    -139.097
  H       91.166    -149.892    -139.073
  P       91.005    -146.076    -140.727
  C       90.804    -144.252    -142.592
  O       91.249    -144.602    -141.302
  O       91.809    -146.058    -139.339
  O       89.587    -146.514    -140.567
  H       92.766    -145.928    -139.455
  H       90.850    -143.164    -142.697
  H       89.771    -144.570    -142.755
  H       91.453    -144.705    -143.346
  H       86.935    -150.300    -140.888
  H       87.578    -150.741    -139.325
  H       87.168    -151.983    -140.483

 3  4  5  6  7  8  9  10  11  12  13  24  28  29  30  31  32 0
 6-311+G(2d,p)
 ****
 33  34 0
 6-311+G(2d,p)
 ****
 1  2  14  15  16  17  18  19  20  21  22  23  25  26  27 0
 3-21G
 ****
 35  36  37  38  39  40  41  42  43  44  45 0
 3-21G
 ****


