%nproc=1
%NoSave
%Mem=1900MB
#P OB98/GEN NMR

erre ene a

0 1
  C       30.508      -4.291     149.173
  O       31.870      -4.225     148.807
  H       30.177      -3.293     149.475
  H       30.383      -4.972     150.018
  H       29.896      -4.625     148.331
  P       32.499      -5.540     148.136
  C       33.575      -5.976     150.458
  O       32.889      -6.525     149.342
  C       32.995      -6.528     151.756
  O       31.634      -6.075     151.933
  C       32.948      -8.051     151.824
  O       34.199      -8.601     152.217
  C       31.898      -8.250     152.905
  O       32.480      -8.005     154.201
  C       30.883      -7.151     152.561
  N       25.973      -8.354     152.195
  C       26.713      -7.971     153.298
  N       26.053      -7.909     154.474
  N       27.987      -7.680     153.255
  C       28.520      -7.797     152.015
  C       27.889      -8.165     150.847
  C       26.480      -8.475     150.907
  O       25.771      -8.797     149.957
  N       28.756      -8.159     149.787
  C       29.913      -7.808     150.313
  N       29.824      -7.584     151.664
  O       33.923      -5.037     147.597
  O       31.691      -6.150     147.041
  H       32.551      -7.038     154.298
  H       34.123      -5.496     146.759
  H       24.997      -8.578     152.286
  H       30.837      -7.701     149.763
  H       30.399      -6.737     153.453
  H       31.498      -9.264     152.920
  H       25.085      -8.167     154.586
  H       32.592      -8.485     150.883
  H       26.566      -7.599     155.289
  H       33.585      -6.123     152.588
  H       33.465      -4.887     150.448
  H       34.638      -6.228     150.382
  P       34.983      -9.506     151.146
  C       35.361     -11.289     152.996
  O       34.871     -11.012     151.689
  O       36.517      -9.131     151.411
  O       34.587      -9.287     149.726
  H       37.049      -9.320     150.614
  H       35.219     -12.326     153.218
  H       34.828     -10.696     153.710
  H       36.404     -11.053     153.043

 6  7  8  9  10  11  12  13  14  15  26  29  33  34 0
 6-311+G(2d,p)
 ****
 36  38  39  40  41 0
 6-311+G(2d,p)
 ****
 1  2  3  4  5  16  17  18  19  20  21  22  23  24  25 0
 3-21G
 ****
 27  28  30  31  32  35  37  42  43  44  45  46  47 0
 3-21G
 ****
 48  49 0
 3-21G
 ****


