%nproc=1
%NoSave
%Mem=1900MB
#P OB98/GEN NMR

erre ene a

0 1
  C        9.238    -770.960     356.950
  O       10.410    -771.661     356.510
  P       10.618    -772.070     354.970
  C        9.496    -774.377     354.855
  O        9.411    -773.012     354.465
  C        8.891    -775.346     353.817
  O        8.956    -776.721     354.292
  C        7.420    -775.065     353.463
  O        7.258    -775.468     352.104
  C        6.688    -776.023     354.396
  O        5.346    -776.285     353.988
  C        7.607    -777.235     354.331
  N        4.354    -780.334     356.797
  C        4.294    -779.744     355.578
  N        5.213    -778.967     354.977
  C        6.308    -778.846     355.743
  C        6.520    -779.393     356.998
  C        5.475    -780.167     357.539
  N        5.522    -780.726     358.789
  N        7.762    -779.029     357.491
  C        8.282    -778.263     356.548
  N        7.443    -778.124     355.474
  O       11.985    -772.607     354.661
  O       10.384    -770.704     354.159
  H        4.927    -776.839     354.671
  H       11.085    -770.598     353.499
  H        3.373    -779.922     355.018
  H        9.249    -777.758     356.604
  H        7.441    -777.818     353.425
  H        6.653    -775.588     355.399
  H        7.128    -774.020     353.603
  H        9.516    -775.293     352.925
  H        8.976    -774.506     355.817
  H        4.676    -781.185     359.125
  H        6.290    -780.505     359.406
  H       10.557    -774.635     355.017
  P        7.022    -774.399     350.930
  C        4.576    -774.904     350.379
  O        5.469    -774.000     350.989
  O        7.501    -774.828     349.582
  O        7.763    -773.066     351.427
  H        7.928    -772.475     350.670
  H        4.615    -774.788     349.289
  H        3.553    -774.685     350.715
  H        4.815    -775.942     350.643
  H        9.300    -770.787     358.004
  H        8.370    -771.547     356.735
  H        9.170    -770.023     356.439

 3  4  5  6  7  8  9  10  11  12  22  25  29  30  31  32 0
 6-311+G(2d,p)
 ****
 33  36  37 0
 6-311+G(2d,p)
 ****
 1  2  13  14  15  16  17  18  19  20  21  23  24  26 0
 3-21G
 ****
 27  28  34  35  38  39  40  41  42  43  44  45  46  47  48 0
 3-21G
 ****


