%nproc=1
%NoSave
%Mem=1900MB
#P OB98/GEN NMR

erre ene a

0 1
  C      369.294     325.920    -334.262
  O      369.331     325.086    -335.400
  H      369.559     325.351    -333.368
  H      370.020     326.728    -334.391
  H      368.299     326.357    -334.143
  P      368.361     323.809    -335.394
  C      366.035     324.952    -335.495
  O      367.032     324.223    -336.200
  C      364.873     325.280    -336.430
  O      363.811     325.877    -335.646
  C      365.224     326.246    -337.576
  O      364.942     325.639    -338.840
  C      364.274     327.420    -337.383
  O      363.747     327.923    -338.610
  C      363.180     326.848    -336.491
  N      359.286     330.132    -336.353
  C      359.457     328.981    -337.041
  N      360.475     328.098    -336.954
  C      361.362     328.483    -336.018
  C      361.305     329.614    -335.221
  C      360.212     330.474    -335.430
  N      360.063     331.673    -334.768
  N      362.404     329.676    -334.384
  C      363.131     328.625    -334.700
  N      362.552     327.885    -335.699
  O      367.866     323.732    -333.871
  O      368.994     322.531    -335.833
  H      364.506     328.269    -339.119
  H      367.955     322.817    -333.544
  H      358.686     328.747    -337.766
  H      364.097     328.379    -334.282
  H      362.398     326.338    -337.071
  H      364.813     328.232    -336.880
  H      366.267     326.576    -337.545
  H      364.485     324.336    -336.836
  H      366.463     325.888    -335.121
  H      359.314     332.280    -335.062
  H      360.807     331.983    -334.158
  H      365.694     324.358    -334.642
  P      366.153     324.854    -339.550
  C      365.726     322.409    -338.764
  O      365.657     323.354    -339.826
  O      367.213     324.680    -338.359
  O      366.741     325.571    -340.718
  H      368.116     324.611    -338.721
  H      365.362     321.462    -339.105
  H      365.127     322.748    -337.945
  H      366.742     322.306    -338.444

 6  7  8  9  10  11  12  13  14  15  25  28  32  33  34  35 0
 6-311+G(2d,p)
 ****
 36  39  40 0
 6-311+G(2d,p)
 ****
 1  2  3  4  5  16  17  18  19  20  21  22  23  24 0
 3-21G
 ****
 26  27  29  30  31  37  38  41  42  43  44  45  46  47  48 0
 3-21G
 ****


