%nproc=1
%NoSave
%Mem=1900MB
#P OB98/GEN NMR

erre ene a

0 1
  C      202.172     152.210     165.069
  O      202.221     151.761     163.709
  P      202.143     150.207     163.320
  C      203.955     149.684     161.565
  O      202.593     150.036     161.789
  C      204.331     149.785     160.083
  O      203.575     148.842     159.299
  C      204.076     151.153     159.459
  O      205.101     152.062     159.812
  C      204.015     150.796     157.976
  O      205.340     150.674     157.433
  C      203.321     149.429     158.008
  N      199.735     150.233     154.451
  C      201.083     150.181     154.379
  N      201.971     149.967     155.373
  C      201.335     149.768     156.540
  C      199.968     149.796     156.768
  C      199.147     150.043     155.656
  N      197.776     150.111     155.734
  N      199.690     149.575     158.101
  C      200.868     149.398     158.664
  N      201.893     149.506     157.763
  O      200.840     149.556     163.650
  O      203.340     149.523     164.136
  H      205.251     150.338     156.521
  H      203.120     148.591     164.322
  H      201.506     150.333     153.389
  H      201.030     149.188     159.713
  H      203.744     148.744     157.264
  H      203.486     151.547     157.382
  H      203.101     151.536     159.780
  H      205.390     149.514     159.988
  H      204.108     148.655     161.912
  H      197.259     150.326     154.895
  H      197.332     150.018     156.636
  H      204.590     150.353     162.157
  P      204.783     153.628     159.919
  C      206.873     154.125     158.517
  O      206.170     154.406     159.713
  O      203.992     154.046     161.114
  O      203.996     153.949     158.562
  H      203.378     154.688     158.715
  H      207.417     153.184     158.628
  H      207.589     154.930     158.334
  H      206.190     154.056     157.667
  H      202.239     153.278     165.095
  H      202.990     151.788     165.614
  H      201.250     151.900     165.514

 3  4  5  6  7  8  9  10  11  12  22  25  29  30  31  32 0
 6-311+G(2d,p)
 ****
 33  36  37 0
 6-311+G(2d,p)
 ****
 1  2  13  14  15  16  17  18  19  20  21  23  24  26 0
 3-21G
 ****
 27  28  34  35  38  39  40  41  42  43  44  45  46  47  48 0
 3-21G
 ****


