%nproc=1
%NoSave
%Mem=1900MB
#P OB98/GEN NMR

erre ene a

0 1
  C      149.629    -169.855     -64.295
  O      149.433    -169.219     -63.049
  H      150.651    -169.659     -64.628
  H      148.937    -169.454     -65.040
  H      149.494    -170.936     -64.202
  P      147.999    -169.352     -62.340
  C      147.579    -166.910     -63.099
  O      147.094    -168.244     -63.075
  C      147.426    -166.318     -64.497
  O      148.331    -166.943     -65.434
  C      146.047    -166.497     -65.123
  O      145.051    -165.659     -64.565
  C      146.365    -166.139     -66.564
  O      146.501    -164.712     -66.687
  C      147.725    -166.852     -66.753
  N      147.585    -168.181     -67.347
  C      148.757    -168.938     -67.470
  O      149.838    -168.487     -67.099
  N      148.680    -170.185     -68.045
  C      147.540    -170.626     -68.480
  N      147.525    -171.865     -69.046
  C      146.286    -169.853     -68.389
  C      146.380    -168.655     -67.816
  O      147.999    -169.294     -60.846
  O      147.385    -170.709     -62.927
  H      147.144    -164.429     -66.009
  H      146.499    -170.844     -62.510
  H      145.370    -170.254     -68.793
  H      145.502    -168.024     -67.720
  H      148.395    -166.252     -67.378
  H      145.591    -166.452     -67.266
  H      145.736    -167.549     -65.088
  H      147.707    -165.258     -64.438
  H      148.400    -172.370     -69.095
  H      148.630    -166.923     -62.791
  H      146.698    -172.254     -69.481
  H      147.011    -166.291     -62.399
  P      143.811    -166.384     -63.840
  C      142.222    -164.988     -65.370
  O      142.570    -166.258     -64.846
  O      143.453    -165.383     -62.649
  O      144.079    -167.777     -63.365
  H      143.845    -165.692     -61.808
  H      141.377    -165.089     -66.018
  H      143.049    -164.591     -65.921
  H      141.978    -164.325     -64.566

 6  7  8  9  10  11  12  13  14  15  16  26  30  31  32  33  35 0
 6-311+G(2d,p)
 ****
 37  38 0
 6-311+G(2d,p)
 ****
 1  2  3  4  5  17  18  19  20  21  22  23  24  25 0
 3-21G
 ****
 27  28  29  34  36  39  40  41  42  43  44  45  46 0
 3-21G
 ****


