%nproc=1
%NoSave
%Mem=1900MB
#P OB98/GEN NMR

erre ene a

0 1
  C      725.763      82.058    -909.951
  O      724.906      81.302    -910.812
  P      725.457      79.894    -911.350
  C      727.193      79.201    -913.179
  O      726.373      80.231    -912.629
  C      727.971      79.723    -914.385
  O      728.819      80.821    -913.987
  C      728.904      78.697    -915.023
  O      728.225      77.811    -915.896
  C      729.828      79.591    -915.783
  O      729.221      80.025    -917.013
  C      729.993      80.776    -914.833
  N      734.788      82.431    -914.184
  C      733.901      82.662    -915.164
  N      732.640      82.184    -915.259
  C      732.360      81.353    -914.242
  C      733.193      81.011    -913.198
  C      734.472      81.588    -913.175
  N      735.391      81.380    -912.167
  N      732.570      80.118    -912.330
  C      731.341      79.971    -912.854
  N      731.197      80.679    -913.990
  O      724.154      79.220    -912.000
  O      726.100      79.031    -910.307
  H      729.252      79.272    -917.632
  H      724.263      78.246    -912.025
  H      734.211      83.334    -915.949
  H      730.585      79.324    -912.424
  H      730.044      81.739    -915.365
  H      730.782      79.100    -916.049
  H      729.464      78.144    -914.254
  H      727.246      80.087    -915.137
  H      726.526      78.385    -913.496
  H      736.187      81.986    -912.120
  H      735.057      80.924    -911.308
  H      727.870      78.838    -912.397
  P      729.033      76.564    -916.473
  C      731.273      76.677    -917.808
  O      729.927      77.156    -917.659
  O      727.921      75.696    -917.236
  O      729.754      75.777    -915.421
  H      728.187      74.765    -917.260
  H      731.630      76.953    -918.823
  H      731.318      75.608    -917.683
  H      731.922      77.156    -917.076
  H      725.274      82.967    -909.670
  H      726.673      82.287    -910.465
  H      725.983      81.485    -909.074

 3  4  5  6  7  8  9  10  11  12  22  25  29  30  31  32 0
 6-311+G(2d,p)
 ****
 33  36  37 0
 6-311+G(2d,p)
 ****
 1  2  13  14  15  16  17  18  19  20  21  23  24  26 0
 3-21G
 ****
 27  28  34  35  38  39  40  41  42  43  44  45  46  47  48 0
 3-21G
 ****


