%nproc=1
%NoSave
%Mem=1900MB
#P OB98/GEN NMR

erre ene a

0 1
  C     -452.883    -222.380    -239.888
  O     -452.571    -222.398    -238.491
  P     -451.139    -222.960    -238.046
  C     -450.266    -220.621    -237.318
  O     -450.080    -221.760    -238.143
  C     -449.443    -219.444    -237.846
  O     -449.827    -219.084    -239.195
  C     -449.595    -218.172    -237.020
  O     -448.746    -218.182    -235.881
  C     -449.120    -217.119    -238.011
  O     -447.677    -217.093    -238.043
  C     -449.674    -217.650    -239.339
  N     -451.960    -214.205    -242.251
  C     -450.625    -214.548    -242.159
  N     -449.776    -213.876    -242.968
  N     -450.166    -215.463    -241.347
  C     -451.132    -216.060    -240.614
  C     -452.483    -215.808    -240.613
  C     -452.979    -214.781    -241.505
  O     -454.146    -214.426    -241.620
  N     -453.144    -216.613    -239.724
  C     -452.197    -217.367    -239.197
  N     -450.954    -217.059    -239.694
  O     -450.725    -223.896    -239.280
  O     -451.147    -223.718    -236.759
  H     -447.390    -217.988    -238.301
  H     -450.131    -224.605    -238.973
  H     -452.258    -213.488    -242.890
  H     -452.361    -218.146    -238.463
  H     -448.993    -217.473    -240.180
  H     -449.449    -216.112    -237.741
  H     -450.068    -213.199    -243.652
  H     -450.646    -217.994    -236.756
  H     -448.796    -214.140    -242.940
  H     -448.386    -219.741    -237.854
  H     -449.974    -220.844    -236.290
  H     -451.331    -220.379    -237.279
  P     -449.350    -218.738    -234.504
  C     -447.485    -220.539    -234.379
  O     -448.870    -220.262    -234.393
  O     -450.915    -218.844    -234.819
  O     -449.082    -217.882    -233.314
  H     -451.429    -218.689    -234.004
  H     -447.343    -221.595    -234.137
  H     -446.977    -219.936    -233.621
  H     -447.051    -220.343    -235.363
  H     -453.866    -221.981    -240.029
  H     -452.844    -223.377    -240.275
  H     -452.173    -221.769    -240.404

 3  4  5  6  7  8  9  10  11  12  23  26  30  31 0
 6-311+G(2d,p)
 ****
 33  35  36  37  38 0
 6-311+G(2d,p)
 ****
 1  2  13  14  15  16  17  18  19  20  21  22  24  25 0
 3-21G
 ****
 27  28  29  32  34  39  40  41  42  43  44  45  46  47  48  49 0
 3-21G
 ****


