%nproc=1
%NoSave
%Mem=1900MB
#P OB98/GEN NMR

erre ene a

0 1
  C      591.061     219.590    -518.519
  O      591.060     218.170    -518.326
  P      589.646     217.535    -517.855
  C      590.191     217.026    -515.345
  O      589.466     217.839    -516.280
  C      589.350     216.725    -514.114
  O      590.047     215.708    -513.308
  C      589.104     217.922    -513.178
  O      587.769     217.809    -512.634
  C      590.082     217.712    -512.039
  O      589.664     218.386    -510.845
  C      590.058     216.173    -511.951
  N      591.620     213.890    -507.699
  C      590.340     214.197    -508.123
  N      589.325     213.867    -507.288
  N      590.064     214.772    -509.268
  C      591.172     215.028    -510.014
  C      592.505     214.766    -509.720
  C      592.774     214.163    -508.412
  O      593.895     213.933    -507.964
  N      593.336     215.167    -510.724
  C      592.521     215.679    -511.642
  N      591.204     215.615    -511.253
  O      589.930     215.943    -517.913
  O      588.499     217.906    -518.710
  H      588.748     218.074    -510.655
  H      589.280     215.514    -518.500
  H      591.770     213.462    -506.797
  H      592.837     216.109    -512.568
  H      589.156     215.813    -511.442
  H      591.061     218.087    -512.331
  H      589.468     213.341    -506.417
  H      589.211     218.891    -513.659
  H      588.385     214.023    -507.589
  H      588.405     216.271    -514.431
  H      591.104     217.552    -515.055
  H      590.484     216.100    -515.860
  P      586.662     218.853    -513.190
  C      586.330     220.066    -510.916
  O      586.801     220.159    -512.244
  O      585.278     218.199    -512.733
  O      586.736     219.097    -514.665
  H      584.561     218.479    -513.340
  H      586.119     219.053    -510.587
  H      585.430     220.677    -510.804
  H      587.111     220.479    -510.249
  H      592.035     219.907    -518.827
  H      590.802     220.075    -517.601
  H      590.347     219.848    -519.273

 3  4  5  6  7  8  9  10  11  12  23  26  30  31  33  0
 6-311+G(2d,p)
 ****
 35  36  37  38 0
 6-311+G(2d,p)
 ****
 1  2  13  14  15  16  17  18  19  20  21  22  24  25  27  28  29 0
 3-21G
 ****
 32  34  39  40  41  42  43  44  45  46  47  48  49 0
 3-21G
 ****


