%nproc=1
%NoSave
%Mem=1900MB
#P OB98/GEN NMR

erre ene a

0 1
  C       54.129     418.055     483.188
  O       54.219     417.066     484.195
  H       54.901     418.809     483.365
  H       53.150     418.541     483.217
  H       54.293     417.604     482.206
  P       53.103     415.915     484.180
  C       54.746     414.223     483.087
  O       53.497     414.899     483.004
  C       54.511     412.713     483.044
  O       53.976     412.265     484.315
  C       53.493     412.271     482.003
  O       54.040     412.223     480.692
  C       53.123     410.893     482.525
  O       54.053     409.892     482.086
  C       53.188     411.087     484.050
  N       51.855     411.177     484.642
  C       51.004     410.105     484.386
  O       51.335     409.131     483.707
  N       49.742     410.205     484.901
  C       49.243     411.271     485.588
  O       48.083     411.319     485.976
  C       50.178     412.385     485.814
  C       51.422     412.291     485.335
  O       51.808     416.667     483.618
  O       52.847     415.272     485.504
  H       51.175     416.818     484.342
  H       53.814     409.078     482.566
  H       49.114     409.434     484.726
  H       49.811     413.248     486.356
  H       52.126     413.102     485.480
  H       53.711     410.246     484.522
  H       52.139     410.596     482.172
  H       52.608     412.917     482.037
  H       55.474     412.216     482.882
  H       55.240     414.475     484.029
  H       55.381     414.544     482.257
  P       53.039     412.468     479.460
  C       53.872     414.963     479.601
  O       52.801     414.053     479.397
  O       51.680     411.875     480.059
  O       53.504     411.831     478.192
  H       51.661     411.929     481.033
  H       53.508     415.966     479.519
  H       54.628     414.796     478.862
  H       54.287     414.813     480.576

 6  7  8  9  10  11  12  13  14  15  16  27  31  32  33  34  35 0
 6-311+G(2d,p)
 ****
 36  37 0
 6-311+G(2d,p)
 ****
 1  2  3  4  5  17  18  19  20  21  22  23  24  25 0
 3-21G
 ****
 26  28  29  30  38  39  40  41  42  43  44  45 0
 3-21G
 ****


