%nproc=1
%NoSave
%Mem=1900MB
#P OB98/GEN NMR

erre ene a

0 1
  C      -48.440     155.023     244.534
  O      -47.400     154.175     244.976
  P      -47.031     154.080     246.534
  C      -45.514     152.404     247.773
  O      -46.493     152.583     246.754
  C      -45.871     151.216     248.667
  O      -47.124     151.448     249.341
  C      -46.039     149.902     247.918
  O      -44.778     149.353     247.582
  C      -46.837     149.089     248.926
  O      -45.980     148.501     249.917
  C      -47.746     150.164     249.562
  N      -49.105     150.124     249.038
  C      -49.858     148.993     249.378
  O      -49.359     148.092     250.051
  N      -51.144     148.892     248.903
  C      -51.622     149.824     248.138
  N      -52.896     149.660     247.692
  C      -50.850     151.015     247.732
  C      -49.611     151.098     248.211
  O      -48.104     154.520     247.471
  O      -45.695     154.957     246.643
  H      -46.571     148.121     250.599
  H      -45.892     155.923     246.583
  H      -51.288     151.759     247.084
  H      -48.974     151.937     247.961
  H      -47.797     150.030     250.651
  H      -47.388     148.271     248.452
  H      -46.642     150.064     247.017
  H      -45.087     151.118     249.431
  H      -53.380     148.816     247.967
  H      -45.477     153.313     248.379
  H      -53.352     150.303     247.064
  H      -44.533     152.259     247.309
  P      -44.687     148.139     246.545
  C      -42.854     147.205     245.013
  O      -43.374     148.354     245.652
  O      -45.938     147.852     245.781
  O      -44.292     146.890     247.469
  H      -44.834     146.120     247.210
  H      -42.197     147.524     244.199
  H      -43.655     146.587     244.602
  H      -42.271     146.621     245.730
  H      -48.533     154.949     243.471
  H      -48.214     156.034     244.802
  H      -49.360     154.729     244.994

 3  4  5  6  7  8  9  10  11  12  13  23  27  28  29  30  32 0
 6-311+G(2d,p)
 ****
 34  35 0
 6-311+G(2d,p)
 ****
 1  2  14  15  16  17  18  19  20  21  22  24  25  26 0
 3-21G
 ****
 31  33  36  37  38  39  40  41  42  43  44  45  46 0
 3-21G
 ****


