%nproc=1
%NoSave
%Mem=1900MB
#P OB98/GEN NMR

erre ene a

0 1
  C      485.775     153.381       6.955
  O      486.432     152.787       8.082
  P      485.520     152.181       9.251
  C      486.398     149.855       8.487
  O      485.299     150.615       8.970
  C      486.130     148.353       8.666
  O      486.277     147.950      10.044
  C      484.725     147.929       8.270
  O      484.612     147.741       6.866
  C      484.603     146.598       8.991
  O      485.277     145.568       8.240
  C      485.346     146.869      10.302
  N      484.248     146.136      15.250
  C      485.161     145.565      14.435
  N      485.383     145.801      13.123
  C      484.547     146.747      12.665
  C      483.567     147.417      13.379
  C      483.425     147.079      14.733
  N      482.492     147.666      15.562
  N      482.898     148.312      12.568
  C      483.481     148.195      11.393
  N      484.478     147.253      11.397
  O      484.076     152.810       8.951
  O      485.989     152.521      10.624
  H      486.230     145.777       8.266
  H      483.610     152.978       9.790
  H      485.800     144.815      14.897
  H      483.215     148.770      10.510
  H      485.932     146.006      10.643
  H      483.565     146.275       9.106
  H      483.976     148.638       8.650
  H      486.864     147.802       8.063
  H      487.314     150.135       9.003
  H      482.474     147.392      16.531
  H      481.895     148.385      15.184
  H      486.557     150.094       7.429
  P      483.138     147.749       6.236
  C      483.301     150.011       4.978
  O      482.746     149.290       6.056
  O      482.225     147.250       7.458
  O      482.976     146.886       5.028
  H      481.444     146.772       7.116
  H      482.715     150.920       4.825
  H      483.287     149.421       4.055
  H      484.335     150.293       5.211
  H      486.508     153.739       6.263
  H      485.168     154.198       7.286
  H      485.158     152.650       6.475

 3  4  5  6  7  8  9  10  11  12  22  25  29  30  31  32 0
 6-311+G(2d,p)
 ****
 33  36  37 0
 6-311+G(2d,p)
 ****
 1  2  13  14  15  16  17  18  19  20  21  23  24  26 0
 3-21G
 ****
 27  28  34  35  38  39  40  41  42  43  44  45  46  47  48 0
 3-21G
 ****


