%nproc=1
%NoSave
%Mem=1900MB
#P OB98/GEN NMR

erre ene a

0 1
  C      142.745    -368.052     420.851
  O      143.709    -368.894     420.258
  H      141.778    -368.240     420.380
  H      143.022    -367.007     420.676
  H      142.658    -368.239     421.925
  P      145.089    -369.149     421.027
  C      147.320    -367.887     421.296
  O      145.945    -367.787     420.969
  C      148.026    -366.525     421.217
  O      148.050    -366.062     419.848
  C      147.296    -365.451     422.016
  O      147.607    -365.403     423.396
  C      147.758    -364.169     421.308
  O      149.018    -363.718     421.834
  C      147.913    -364.625     419.857
  N      145.975    -361.188     416.611
  C      147.168    -361.146     417.305
  N      147.914    -360.026     417.160
  N      147.581    -362.119     418.084
  C      146.691    -363.134     418.200
  C      145.468    -363.275     417.572
  C      145.053    -362.220     416.668
  O      143.998    -362.202     416.036
  N      144.847    -364.437     417.945
  C      145.649    -364.968     418.847
  N      146.797    -364.224     419.017
  O      145.904    -370.112     420.033
  O      144.960    -369.767     422.391
  H      149.727    -364.270     421.450
  H      146.538    -370.648     420.540
  H      145.723    -360.424     415.998
  H      145.468    -365.896     419.382
  H      148.827    -364.213     419.399
  H      147.049    -363.354     421.448
  H      147.583    -359.211     416.666
  H      146.214    -365.542     421.886
  H      148.645    -359.846     417.849
  H      149.067    -366.633     421.536
  H      147.771    -368.580     420.587
  H      147.448    -368.317     422.297
  P      146.450    -365.147     424.477
  C      145.756    -363.141     425.996
  O      146.660    -363.655     425.036
  O      146.896    -366.080     425.701
  O      145.075    -365.461     424.007
  H      146.412    -366.930     425.657
  H      146.041    -362.143     426.256
  H      145.776    -363.757     426.871
  H      144.767    -363.134     425.587

 6  7  8  9  10  11  12  13  14  15  26  29  33  34 0
 6-311+G(2d,p)
 ****
 36  38  39  40  41 0
 6-311+G(2d,p)
 ****
 1  2  3  4  5  16  17  18  19  20  21  22  23  24  25 0
 3-21G
 ****
 27  28  30  31  32  35  37  42  43  44  45  46  47 0
 3-21G
 ****
 48  49 0
 3-21G
 ****


