%nproc=1
%NoSave
%Mem=1900MB
#P OB98/GEN NMR

erre ene a

0 1
  C       -2.070    -764.584     -98.891
  O       -0.970    -765.476     -98.901
  H       -2.397    -764.424     -99.922
  H       -1.766    -763.627     -98.467
  H       -2.905    -764.998     -98.321
  P       -0.468    -766.095     -97.511
  C        1.884    -765.059     -97.294
  O        0.531    -765.021     -96.861
  C        2.787    -764.280     -96.331
  O        2.711    -764.920     -95.012
  C        4.273    -764.253     -96.737
  O        4.819    -763.007     -96.287
  C        4.822    -765.415     -95.929
  O        6.226    -765.405     -95.887
  C        4.073    -765.196     -94.613
  N        4.136    -766.334     -93.710
  C        5.055    -766.275     -92.663
  O        5.789    -765.310     -92.453
  N        5.109    -767.380     -91.860
  C        4.363    -768.514     -91.999
  O        4.442    -769.469     -91.231
  C        3.430    -768.534     -93.136
  C        3.362    -767.458     -93.928
  O        0.059    -767.493     -97.577
  O       -1.758    -766.003     -96.564
  H       -2.218    -766.860     -96.550
  H        6.560    -766.189     -95.407
  H        5.771    -767.349     -91.093
  H        2.840    -769.428     -93.289
  H        2.688    -767.434     -94.779
  H        4.441    -764.306     -94.100
  H        4.527    -766.362     -96.392
  H        4.420    -764.345     -97.820
  H        2.387    -763.266     -96.212
  H        1.937    -764.605     -98.291
  H        2.215    -766.099     -97.359
  P        5.542    -761.957     -97.259
  C        8.065    -762.413     -96.943
  O        6.925    -762.577     -97.779
  O        5.700    -760.592     -96.667
  O        4.630    -761.893     -98.578
  H        4.635    -760.982     -98.930
  H        8.915    -762.870     -97.405
  H        7.882    -762.876     -95.996
  H        8.255    -761.370     -96.800

 6  7  8  9  10  11  12  13  14  15  16  27  31  32  33  34  35 0
 6-311+G(2d,p)
 ****
 36  37 0
 6-311+G(2d,p)
 ****
 1  2  3  4  5  17  18  19  20  21  22  23  24  25 0
 3-21G
 ****
 26  28  29  30  38  39  40  41  42  43  44  45 0
 3-21G
 ****


