%nproc=1
%NoSave
%Mem=1900MB
#P OB98/GEN NMR

erre ene a

0 1
  C     -863.265     167.925     540.196
  O     -863.921     168.991     540.845
  P     -865.506     168.972     541.042
  C     -865.526     169.453     543.565
  O     -865.819     168.503     542.545
  C     -864.949     168.736     544.791
  O     -863.624     168.233     544.488
  C     -864.771     169.656     546.011
  O     -866.005     169.895     546.656
  C     -863.770     168.842     546.838
  O     -864.439     167.811     547.574
  C     -862.885     168.225     545.737
  N     -857.794     167.758     545.922
  C     -858.786     166.936     546.311
  N     -860.121     167.136     546.266
  C     -860.392     168.361     545.782
  C     -859.477     169.349     545.371
  C     -858.121     168.990     545.443
  N     -857.086     169.804     544.988
  N     -860.139     170.480     544.960
  C     -861.421     170.221     545.119
  N     -861.625     168.939     545.545
  O     -866.274     168.236     539.982
  O     -865.915     170.523     541.057
  H     -865.053     168.270     548.193
  H     -866.526     170.707     540.319
  H     -858.481     165.963     546.703
  H     -862.228     170.899     544.930
  H     -862.639     167.177     545.957
  H     -863.221     169.473     547.553
  H     -864.304     170.607     545.704
  H     -865.593     167.895     545.032
  H     -866.455     169.967     543.840
  H     -856.175     169.385     544.941
  H     -857.331     170.547     544.351
  H     -864.819     170.192     543.183
  P     -866.362     171.371     547.178
  C     -868.246     171.775     545.472
  O     -866.970     172.173     545.924
  O     -865.274     172.073     547.932
  O     -867.652     171.127     548.101
  H     -867.648     171.772     548.841
  H     -868.148     170.862     544.874
  H     -868.664     172.577     544.863
  H     -868.921     171.574     546.321
  H     -862.214     168.121     540.162
  H     -863.642     167.828     539.199
  H     -863.442     167.017     540.734

 3  4  5  6  7  8  9  10  11  12  22  25  29  30  31  32 0
 6-311+G(2d,p)
 ****
 33  36  37 0
 6-311+G(2d,p)
 ****
 1  2  13  14  15  16  17  18  19  20  21  23  24  26 0
 3-21G
 ****
 27  28  34  35  38  39  40  41  42  43  44  45  46  47  48 0
 3-21G
 ****


