%nproc=1
%NoSave
%Mem=1900MB
#P OB98/GEN NMR

erre ene a

0 1
  C      201.344    -396.905    -109.545
  O      202.264    -397.470    -110.491
  P      202.445    -396.918    -111.988
  C      202.367    -397.956    -114.346
  O      201.844    -397.989    -113.024
  C      201.507    -398.774    -115.320
  O      201.494    -400.181    -114.921
  C      200.035    -398.314    -115.413
  O      199.655    -398.439    -116.781
  C      199.332    -399.341    -114.533
  O      197.934    -399.421    -114.767
  C      200.113    -400.597    -114.929
  N      199.916    -401.755    -114.059
  C      198.737    -402.494    -114.219
  O      197.869    -402.155    -115.016
  N      198.557    -403.616    -113.439
  C      199.462    -403.957    -112.578
  N      199.221    -405.083    -111.843
  C      200.704    -403.200    -112.363
  C      200.867    -402.126    -113.132
  O      203.841    -396.498    -112.306
  O      201.439    -395.673    -112.102
  H      201.851    -394.987    -112.671
  H      197.804    -399.791    -115.665
  H      201.436    -403.532    -111.640
  H      201.771    -401.528    -113.054
  H      199.867    -400.874    -115.963
  H      199.483    -399.072    -113.486
  H      199.886    -397.277    -115.098
  H      201.979    -398.735    -116.305
  H      198.357    -405.585    -112.025
  H      203.380    -398.377    -114.333
  H      199.862    -405.447    -111.151
  H      202.434    -396.914    -114.677
  P      199.009    -397.187    -117.547
  C      196.594    -396.343    -118.048
  O      197.415    -397.285    -117.391
  O      199.209    -397.592    -119.088
  O      199.634    -395.853    -117.281
  H      199.236    -396.785    -119.631
  H      195.756    -396.870    -118.512
  H      197.129    -395.786    -118.819
  H      196.196    -395.636    -117.307
  H      201.406    -397.443    -108.622
  H      200.348    -396.973    -109.931
  H      201.591    -395.878    -109.377

 3  4  5  6  7  8  9  10  11  12  13  24  27  28  29  30  32 0
 6-311+G(2d,p)
 ****
 34  35 0
 6-311+G(2d,p)
 ****
 1  2  14  15  16  17  18  19  20  21  22  23  25  26 0
 3-21G
 ****
 31  33  36  37  38  39  40  41  42  43  44  45  46 0
 3-21G
 ****


