%nproc=1
%NoSave
%Mem=1900MB
#P OB98/GEN NMR

erre ene a

0 1
  C     -110.031      42.782       0.711
  O     -109.211      42.279       1.748
  H     -110.730      41.998       0.408
  H     -109.421      43.065      -0.152
  H     -110.598      43.645       1.068
  P     -108.083      43.270       2.313
  C     -107.801      41.866       4.456
  O     -107.182      42.341       3.267
  C     -106.955      40.763       5.094
  O     -106.975      39.604       4.222
  C     -105.493      41.162       5.303
  O     -105.028      40.613       6.535
  C     -104.772      40.495       4.145
  O     -103.399      40.244       4.431
  C     -105.614      39.238       3.937
  N     -102.967      36.118       0.892
  C     -102.942      36.313       2.228
  N     -103.697      37.157       2.963
  C     -104.579      37.806       2.183
  C     -104.720      37.714       0.810
  C     -103.854      36.824       0.152
  N     -103.855      36.638      -1.211
  N     -105.706      38.574       0.368
  C     -106.162      39.163       1.457
  N     -105.499      38.743       2.577
  O     -108.581      44.531       2.935
  O     -107.146      43.460       1.032
  H     -103.337      39.404       4.932
  H     -106.985      42.612       0.578
  H     -102.217      35.719       2.779
  H     -106.953      39.905       1.485
  H     -105.323      38.421       4.608
  H     -104.819      41.144       3.261
  H     -105.350      42.243       5.303
  H     -107.425      40.460       6.036
  H     -108.799      41.477       4.231
  H     -103.210      35.969      -1.600
  H     -104.521      37.142      -1.778
  H     -107.903      42.711       5.143
  P     -105.213      41.476       7.873
  C     -105.695      39.565       9.540
  O     -104.778      40.573       9.127
  O     -106.514      42.189       8.016
  O     -104.001      42.523       7.777
  H     -104.300      43.386       8.123
  H     -105.291      39.037      10.378
  H     -105.860      38.881       8.734
  H     -106.623      40.019       9.818

 6  7  8  9  10  11  12  13  14  15  25  28  32  33  34  35 0
 6-311+G(2d,p)
 ****
 36  39  40 0
 6-311+G(2d,p)
 ****
 1  2  3  4  5  16  17  18  19  20  21  22  23  24 0
 3-21G
 ****
 26  27  29  30  31  37  38  41  42  43  44  45  46  47 0
 3-21G
 ****
 48 0
 3-21G
 ****


