%nproc=1
%NoSave
%Mem=1900MB
#P OB98/GEN NMR

erre ene a

0 1
  C      -42.993      84.272      -8.426
  O      -41.735      84.525      -7.832
  H      -43.212      85.029      -9.185
  H      -42.962      83.290      -8.906
  H      -43.779      84.268      -7.663
  P      -41.581      85.916      -7.043
  C      -40.589      86.992      -9.188
  O      -41.570      87.065      -8.165
  C      -40.087      88.390      -9.538
  O      -41.158      89.173     -10.112
  C      -39.576      89.199      -8.352
  O      -38.253      88.833      -7.992
  C      -39.626      90.608      -8.929
  O      -38.483      90.828      -9.776
  C      -40.908      90.562      -9.775
  N      -44.343      94.356      -9.660
  C      -43.344      94.067     -10.525
  N      -42.484      93.028     -10.498
  C      -42.745      92.225      -9.454
  C      -43.742      92.372      -8.504
  C      -44.565      93.504      -8.627
  N      -45.544      93.823      -7.694
  N      -43.686      91.352      -7.573
  C      -42.664      90.613      -7.948
  N      -42.068      91.094      -9.084
  O      -40.063      85.868      -6.530
  O      -42.540      86.119      -5.916
  H      -37.694      90.641      -9.236
  H      -40.047      85.555      -5.606
  H      -43.217      94.769     -11.345
  H      -42.317      89.728      -7.431
  H      -40.802      91.109     -10.720
  H      -39.613      91.387      -8.159
  H      -40.259      89.138      -7.497
  H      -39.308      88.287     -10.305
  H      -41.027      86.530     -10.081
  H      -45.719      94.822      -7.623
  H      -45.479      93.305      -6.826
  H      -39.759      86.370      -8.835
  P      -37.898      88.750      -6.428
  C      -36.579      90.973      -6.535
  O      -37.654      90.259      -5.936
  O      -36.433      88.107      -6.430
  O      -38.842      87.944      -5.602
  H      -36.428      87.298      -5.882
  H      -36.529      91.958      -6.119
  H      -36.739      91.039      -7.591
  H      -35.660      90.459      -6.346

 6  7  8  9  10  11  12  13  14  15  25  28  32  33  34  35 0
 6-311+G(2d,p)
 ****
 36  39  40 0
 6-311+G(2d,p)
 ****
 1  2  3  4  5  16  17  18  19  20  21  22  23  24 0
 3-21G
 ****
 26  27  29  30  31  37  38  41  42  43  44  45  46  47  48 0
 3-21G
 ****


