%nproc=1
%NoSave
%Mem=1900MB
#P OB98/GEN NMR

erre ene a

0 1
  C     -232.681    -114.058     282.571
  O     -233.367    -114.495     281.414
  H     -233.390    -114.004     283.403
  H     -232.270    -113.059     282.397
  H     -231.878    -114.753     282.835
  P     -232.475    -114.940     280.159
  C     -232.617    -112.443     279.475
  O     -231.805    -113.603     279.559
  C     -231.905    -111.351     278.675
  O     -230.683    -110.985     279.370
  C     -231.523    -111.781     277.250
  O     -231.710    -110.669     276.368
  C     -230.038    -112.094     277.364
  O     -229.353    -111.958     276.118
  C     -229.596    -111.095     278.430
  N     -224.620    -111.662     277.842
  C     -225.560    -111.100     276.999
  N     -225.108    -110.629     275.816
  N     -226.834    -111.014     277.287
  C     -227.136    -111.497     278.519
  C     -226.298    -112.078     279.445
  C     -224.894    -112.194     279.102
  O     -224.017    -112.699     279.796
  N     -226.990    -112.470     280.563
  C     -228.241    -112.128     280.315
  N     -228.378    -111.528     279.092
  O     -233.568    -115.339     279.057
  O     -231.522    -116.061     280.414
  H     -229.829    -112.512     275.460
  H     -233.501    -116.292     278.857
  H     -223.653    -111.715     277.563
  H     -229.084    -112.299     280.975
  H     -229.401    -110.095     278.012
  H     -229.905    -113.124     277.716
  H     -224.135    -110.619     275.547
  H     -232.098    -112.635     276.889
  H     -225.775    -110.180     275.197
  H     -232.540    -110.458     278.658
  H     -232.819    -112.077     280.491
  H     -233.568    -112.697     278.995
  P     -233.132    -110.565     275.624
  C     -232.449    -109.996     273.190
  O     -232.929    -110.990     274.085
  O     -233.390    -108.986     275.546
  O     -234.241    -111.268     276.339
  H     -234.096    -108.736     276.173
  H     -232.362    -110.412     272.208
  H     -231.490    -109.653     273.519
  H     -233.134    -109.174     273.169

 6  7  8  9  10  11  12  13  14  15  26  29  33  34 0
 6-311+G(2d,p)
 ****
 36  38  39  40  41 0
 6-311+G(2d,p)
 ****
 1  2  3  4  5  16  17  18  19  20  21  22  23  24  25 0
 3-21G
 ****
 27  28  30  31  32  35  37  42  43  44  45  46  47 0
 3-21G
 ****
 48  49 0
 3-21G
 ****


