%nproc=1
%NoSave
%Mem=1900MB
#P OB98/GEN NMR

erre ene a

0 1
  C      -27.772     -61.036      35.821
  O      -26.411     -61.305      36.085
  H      -28.388     -61.719      36.413
  H      -27.988     -61.195      34.762
  H      -28.016     -60.007      36.101
  P      -25.330     -60.409      35.308
  C      -25.844     -61.646      33.087
  O      -25.785     -60.399      33.764
  C      -25.636     -61.446      31.584
  O      -26.802     -60.770      31.033
  C      -24.402     -60.600      31.235
  O      -23.797     -61.134      30.052
  C      -24.998     -59.240      30.914
  O      -24.146     -58.462      30.081
  C      -26.313     -59.655      30.261
  N      -28.250     -56.034      27.352
  C      -27.316     -57.012      27.066
  N      -26.814     -57.027      25.811
  N      -26.906     -57.896      27.935
  C      -27.509     -57.780      29.144
  C      -28.436     -56.853      29.555
  C      -28.866     -55.864      28.588
  O      -29.672     -54.960      28.789
  N      -28.777     -57.047      30.871
  C      -28.059     -58.089      31.251
  N      -27.277     -58.570      30.236
  O      -24.019     -61.328      35.299
  O      -25.070     -59.062      35.894
  H      -24.588     -57.602      29.919
  H      -23.211     -60.780      35.300
  H      -28.522     -55.370      26.648
  H      -28.067     -58.529      32.240
  H      -26.179     -59.986      29.223
  H      -25.180     -58.681      31.840
  H      -27.106     -56.398      25.078
  H      -23.663     -60.554      32.038
  H      -26.138     -57.745      25.575
  H      -25.587     -62.431      31.104
  H      -26.825     -62.101      33.260
  H      -25.067     -62.308      33.482
  P      -22.238     -61.504      30.117
  C      -21.338     -59.405      28.883
  O      -21.384     -60.144      30.095
  O      -21.960     -62.142      28.675
  O      -21.889     -62.463      31.209
  H      -21.832     -63.104      28.760
  H      -20.736     -58.531      29.021
  H      -22.330     -59.115      28.604
  H      -20.914     -60.012      28.111

 6  7  8  9  10  11  12  13  14  15  26  29  33  34 0
 6-311+G(2d,p)
 ****
 36  38  39  40  41 0
 6-311+G(2d,p)
 ****
 1  2  3  4  5  16  17  18  19  20  21  22  23  24  25 0
 3-21G
 ****
 27  28  30  31  32  35  37  42  43  44  45  46  47 0
 3-21G
 ****
 48  49 0
 3-21G
 ****


