%nproc=1
%NoSave
%Mem=1900MB
#P OB98/GEN NMR

erre ene a

0 1
  C      -72.490     251.021     308.888
  O      -72.661     251.358     310.252
  H      -71.690     250.282     308.810
  H      -72.206     251.912     308.319
  H      -73.412     250.598     308.484
  P      -73.903     252.303     310.616
  C      -74.977     252.970     312.918
  O      -74.318     251.980     312.137
  C      -75.092     252.491     314.367
  O      -75.994     251.375     314.480
  C      -73.791     251.968     314.947
  O      -72.851     252.987     315.196
  C      -74.307     251.280     316.205
  O      -74.565     252.235     317.244
  C      -75.631     250.655     315.690
  N      -75.516     249.223     315.456
  C      -75.439     248.421     316.602
  O      -75.481     248.934     317.721
  N      -75.288     247.068     316.451
  C      -75.243     246.551     315.262
  N      -75.080     245.201     315.173
  C      -75.345     247.354     314.024
  C      -75.475     248.671     314.193
  O      -75.099     251.649     309.779
  O      -73.690     253.759     310.361
  H      -74.799     251.718     318.039
  H      -75.215     250.698     309.944
  H      -75.313     246.882     313.051
  H      -75.555     249.334     313.343
  H      -76.439     250.823     316.413
  H      -73.589     250.562     316.600
  H      -73.369     251.192     314.290
  H      -75.496     253.319     314.968
  H      -74.996     244.686     316.044
  H      -75.968     253.195     312.508
  H      -75.004     244.693     314.305
  H      -74.384     253.885     312.869
  P      -71.313     252.803     314.769
  C      -69.118     254.066     315.231
  O      -70.542     254.110     315.291
  O      -71.090     252.478     313.332
  O      -70.787     251.673     315.777
  H      -70.851     251.913     316.720
  H      -68.717     254.986     315.602
  H      -68.808     253.926     314.217
  H      -68.761     253.254     315.829

 6  7  8  9  10  11  12  13  14  15  16  26  30  31  32  33  35 0
 6-311+G(2d,p)
 ****
 37  38 0
 6-311+G(2d,p)
 ****
 1  2  3  4  5  17  18  19  20  21  22  23  24  25 0
 3-21G
 ****
 27  28  29  34  36  39  40  41  42  43  44  45  46 0
 3-21G
 ****


