%nproc=1
%NoSave
%Mem=1900MB
#P OB98/GEN NMR

erre ene a

0 1
  C      399.528     333.415    -246.778
  O      399.831     332.016    -246.822
  P      399.511     331.184    -245.484
  C      398.363     329.235    -246.756
  O      399.418     329.626    -245.883
  C      398.517     327.774    -247.197
  O      399.564     327.635    -248.198
  C      398.877     326.814    -246.048
  O      398.228     325.566    -246.334
  C      400.376     326.642    -246.206
  O      400.849     325.478    -245.529
  C      400.476     326.611    -247.726
  N      404.791     324.351    -249.072
  C      403.654     323.826    -248.506
  N      403.636     322.486    -248.316
  N      402.612     324.534    -248.157
  C      402.753     325.864    -248.442
  C      403.827     326.511    -249.022
  C      404.979     325.697    -249.371
  O      406.015     326.119    -249.882
  N      403.576     327.848    -249.180
  C      402.381     328.016    -248.632
  N      401.810     326.840    -248.230
  O      397.997     331.589    -245.160
  O      400.423     331.488    -244.348
  H      400.331     324.721    -245.875
  H      397.971     332.266    -244.459
  H      405.566     323.755    -249.304
  H      401.870     328.965    -248.537
  H      400.151     325.643    -248.146
  H      400.902     327.522    -245.799
  H      404.381     321.869    -248.601
  H      398.591     327.174    -245.053
  H      402.791     322.069    -247.936
  H      397.575     327.457    -247.666
  H      398.356     329.870    -247.644
  H      397.404     329.398    -246.255
  P      397.433     324.853    -245.146
  C      395.778     323.653    -246.749
  O      396.771     323.520    -245.745
  O      396.170     325.821    -244.916
  O      398.206     324.681    -243.879
  H      395.973     325.889    -243.963
  H      395.779     322.751    -247.354
  H      395.966     324.515    -247.388
  H      394.797     323.766    -246.270
  H      399.780     333.864    -247.716
  H      400.094     333.878    -245.997
  H      398.483     333.548    -246.588

 3  4  5  6  7  8  9  10  11  12  23  26  30  31 0
 6-311+G(2d,p)
 ****
 33  35  36  37  38 0
 6-311+G(2d,p)
 ****
 1  2  13  14  15  16  17  18  19  20  21  22  24  25 0
 3-21G
 ****
 27  28  29  32  34  39  40  41  42  43  44  45  46  47  48  49 0
 3-21G
 ****


