%nproc=1
%NoSave
%Mem=1900MB
#P OB98/GEN NMR

erre ene a

0 1
  C       -7.950     -63.868      77.739
  O       -7.826     -64.077      76.341
  P       -6.842     -65.245      75.847
  C       -4.931     -63.509      75.688
  O       -5.350     -64.766      76.203
  C       -3.417     -63.356      75.799
  O       -3.001     -63.756      77.135
  C       -2.621     -64.203      74.795
  O       -1.552     -63.414      74.251
  C       -1.997     -65.287      75.660
  O       -0.806     -65.811      75.083
  C       -1.787     -64.515      76.962
  N        1.794     -66.141      80.130
  C        1.828     -65.106      79.216
  N        3.004     -64.450      79.092
  N        0.806     -64.747      78.486
  C       -0.313     -65.470      78.739
  C       -0.473     -66.511      79.625
  C        0.685     -66.936      80.381
  O        0.744     -67.902      81.140
  N       -1.762     -66.983      79.611
  C       -2.379     -66.234      78.718
  N       -1.530     -65.334      78.125
  O       -6.912     -65.117      74.252
  O       -7.206     -66.618      76.295
  H       -0.412     -66.416      75.740
  H       -7.182     -65.972      73.865
  H        2.619     -66.387      80.654
  H       -3.422     -66.329      78.445
  H       -0.954     -63.808      76.860
  H       -2.716     -66.104      75.785
  H        3.820     -64.653      79.648
  H       -3.221     -64.619      73.982
  H        3.042     -63.673      78.444
  H       -3.166     -62.292      75.695
  H       -5.416     -62.708      76.255
  H       -5.238     -63.434      74.639
  P       -1.262     -63.607      72.683
  C        0.492     -65.505      73.011
  O       -0.775     -65.123      72.515
  O        0.069     -62.749      72.445
  O       -2.387     -63.175      71.801
  H        0.132     -62.469      71.513
  H        0.952     -64.719      73.621
  H        1.152     -65.729      72.169
  H        0.379     -66.403      73.622
  H       -8.633     -63.065      77.920
  H       -6.993     -63.622      78.149
  H       -8.318     -64.760      78.202

 3  4  5  6  7  8  9  10  11  12  23  26  30  31  33  0
 6-311+G(2d,p)
 ****
 35  36  37  38 0
 6-311+G(2d,p)
 ****
 1  2  13  14  15  16  17  18  19  20  21  22  24  25  27  28  29 0
 3-21G
 ****
 32  34  39  40  41  42  43  44  45  46  47  48  49 0
 3-21G
 ****


