%nproc=1
%NoSave
%Mem=1900MB
#P OB98/GEN NMR

erre ene a

0 1
  C     -155.838    -255.044     -54.079
  O     -155.847    -253.622     -53.965
  P     -154.679    -252.938     -53.109
  C     -155.871    -252.711     -50.785
  O     -154.889    -253.351     -51.574
  C     -155.310    -252.326     -49.404
  O     -156.331    -251.593     -48.678
  C     -154.933    -253.500     -48.504
  O     -154.057    -253.028     -47.475
  C     -156.272    -253.864     -47.898
  O     -156.118    -254.655     -46.723
  C     -156.929    -252.481     -47.694
  N     -158.399    -252.494     -47.854
  C     -159.192    -252.351     -46.718
  O     -158.742    -252.211     -45.581
  N     -160.545    -252.406     -46.914
  C     -161.173    -252.548     -48.114
  O     -162.387    -252.681     -48.223
  C     -160.300    -252.555     -49.292
  C     -158.978    -252.538     -49.114
  O     -155.043    -251.383     -53.154
  O     -153.310    -253.210     -53.638
  H     -157.012    -254.729     -46.317
  H     -154.441    -250.911     -53.760
  H     -161.130    -252.371     -46.091
  H     -160.766    -252.599     -50.269
  H     -158.314    -252.565     -49.974
  H     -156.716    -252.084     -46.692
  H     -156.853    -254.452     -48.612
  H     -154.477    -254.345     -49.025
  H     -154.453    -251.653     -49.539
  H     -156.742    -253.361     -50.671
  H     -156.221    -251.805     -51.296
  P     -152.494    -252.904     -47.819
  C     -151.930    -255.157     -46.717
  O     -151.933    -254.404     -47.914
  O     -151.711    -251.971     -46.961
  O     -152.503    -252.436     -49.354
  H     -151.640    -252.048     -49.583
  H     -152.044    -256.216     -46.963
  H     -152.752    -254.858     -46.052
  H     -150.978    -255.010     -46.201
  H     -156.670    -255.359     -54.674
  H     -155.911    -255.480     -53.105
  H     -154.927    -255.359     -54.544

 3  4  5  6  7  8  9  10  11  12  13  23  28  29  30  31  32 0
 6-311+G(2d,p)
 ****
 33  34 0
 6-311+G(2d,p)
 ****
 1  2  14  15  16  17  18  19  20  21  22  24  25  26  27 0
 3-21G
 ****
 35  36  37  38  39  40  41  42  43  44  45 0
 3-21G
 ****


