%nproc=1
%NoSave
%Mem=1900MB
#P OB98/GEN NMR

erre ene a

0 1
  C      371.556    -248.106    1582.841
  O      370.412    -247.372    1582.441
  H      371.548    -248.196    1583.928
  H      372.465    -247.570    1582.548
  H      371.549    -249.110    1582.403
  P      370.091    -247.220    1580.877
  C      371.582    -246.208    1579.015
  O      371.032    -246.032    1580.326
  C      372.785    -245.286    1578.861
  O      373.768    -245.559    1579.887
  C      373.533    -245.501    1577.523
  O      372.838    -244.889    1576.459
  C      374.877    -244.874    1577.843
  O      374.813    -243.439    1577.742
  C      375.071    -245.290    1579.329
  N      375.961    -246.455    1579.472
  C      377.294    -246.182    1579.725
  O      377.745    -245.039    1579.795
  N      378.125    -247.273    1579.868
  C      377.739    -248.580    1579.658
  O      378.527    -249.518    1579.719
  C      376.319    -248.808    1579.376
  C      375.508    -247.749    1579.281
  O      368.650    -247.109    1580.516
  O      370.769    -248.521    1580.229
  H      374.481    -243.257    1576.828
  H      370.056    -249.171    1580.005
  H      379.097    -247.103    1580.041
  H      375.995    -249.826    1579.221
  H      374.451    -247.893    1579.073
  H      375.499    -244.458    1579.909
  H      375.662    -245.218    1577.184
  H      373.680    -246.587    1577.334
  H      372.457    -244.248    1578.954
  H      370.813    -245.931    1578.283
  H      371.843    -247.256    1578.887
  P      373.341    -245.106    1574.955
  C      375.639    -245.654    1573.965
  O      374.927    -244.889    1574.919
  O      372.579    -244.350    1573.915
  O      373.178    -246.695    1574.728
  H      372.552    -246.856    1573.983
  H      376.682    -245.427    1574.033
  H      375.286    -245.418    1572.983
  H      375.487    -246.695    1574.158

 6  7  8  9  10  11  12  13  14  15  16  26  31  32  33  34  35 0
 6-311+G(2d,p)
 ****
 36  37 0
 6-311+G(2d,p)
 ****
 1  2  3  4  5  17  18  19  20  21  22  23  24  25 0
 3-21G
 ****
 27  28  29  30  38  39  40  41  42  43  44  45 0
 3-21G
 ****


