%nproc=1
%NoSave
%Mem=1900MB
#P OB98/GEN NMR

erre ene a

0 1
  C       50.796    -148.684      91.559
  O       51.089    -149.534      90.443
  P       51.373    -148.943      88.979
  C       53.880    -148.444      89.229
  O       52.899    -149.216      88.544
  C       55.096    -149.270      89.676
  O       54.683    -150.408      90.487
  C       55.955    -149.831      88.533
  O       57.292    -149.883      89.033
  C       55.390    -151.236      88.373
  O       56.261    -152.124      87.688
  C       55.145    -151.605      89.836
  N       54.501    -156.524      91.136
  C       55.555    -155.687      91.272
  N       55.638    -154.383      90.939
  C       54.469    -153.936      90.449
  C       53.301    -154.666      90.260
  C       53.351    -156.028      90.615
  N       52.294    -156.894      90.436
  N       52.313    -153.876      89.703
  C       52.874    -152.691      89.554
  N       54.177    -152.675      89.994
  O       50.933    -147.524      88.794
  O       50.535    -149.899      87.998
  H       55.942    -153.037      87.829
  H       50.047    -149.351      87.353
  H       56.451    -156.128      91.705
  H       52.402    -151.824      89.116
  H       56.077    -151.919      90.329
  H       54.452    -151.185      87.804
  H       55.901    -149.244      87.617
  H       55.707    -148.630      90.330
  H       53.408    -147.982      90.111
  H       52.451    -157.868      90.635
  H       51.473    -156.576      89.936
  H       54.214    -147.634      88.570
  P       58.532    -149.317      88.185
  C       57.876    -146.890      87.688
  O       58.636    -147.749      88.519
  O       58.500    -149.648      86.728
  O       59.825    -149.934      88.902
  H       60.588    -149.895      88.287
  H       58.371    -146.778      86.716
  H       57.794    -145.912      88.166
  H       56.864    -147.289      87.534
  H       50.641    -149.283      92.432
  H       49.912    -148.118      91.353
  H       51.616    -148.017      91.725

 3  4  5  6  7  8  9  10  11  12  22  25  29  30  31  32 0
 6-311+G(2d,p)
 ****
 33  36  37 0
 6-311+G(2d,p)
 ****
 1  2  13  14  15  16  17  18  19  20  21  23  24  26 0
 3-21G
 ****
 27  28  34  35  38  39  40  41  42  43  44  45  46  47  48 0
 3-21G
 ****


