%nproc=1
%NoSave
%Mem=1900MB
#P OB98/GEN NMR

erre ene a

0 1
  C     -312.069    -886.791     169.551
  O     -311.657    -888.137     169.651
  H     -313.068    -886.698     169.981
  H     -312.111    -886.484     168.501
  H     -311.392    -886.129     170.106
  P     -310.120    -888.494     169.395
  C     -309.082    -887.938     171.693
  O     -309.507    -888.962     170.806
  C     -308.708    -888.525     173.058
  O     -309.928    -888.862     173.780
  C     -307.901    -889.820     172.918
  O     -307.030    -890.048     174.027
  C     -308.983    -890.891     172.916
  O     -308.507    -892.173     173.308
  C     -309.992    -890.298     173.894
  N     -313.439    -894.021     174.451
  C     -312.075    -894.060     174.669
  N     -311.562    -895.230     175.111
  N     -311.284    -893.027     174.477
  C     -311.922    -891.940     173.964
  C     -313.258    -891.810     173.674
  C     -314.129    -892.927     173.946
  O     -315.335    -892.965     173.726
  N     -313.535    -890.563     173.170
  C     -312.374    -889.947     173.138
  N     -311.364    -890.732     173.646
  O     -309.429    -887.067     169.173
  O     -309.848    -889.418     168.247
  H     -309.277    -892.691     173.621
  H     -308.602    -887.158     168.684
  H     -313.996    -894.833     174.650
  H     -312.205    -888.931     172.804
  H     -309.756    -890.554     174.920
  H     -309.379    -890.980     171.900
  H     -312.097    -896.086     175.084
  H     -307.316    -889.858     171.995
  H     -310.550    -895.353     174.983
  H     -308.185    -887.768     173.662
  H     -309.907    -887.224     171.794
  H     -308.231    -887.392     171.268
  P     -305.682    -890.881     173.777
  C     -304.228    -888.665     173.784
  O     -304.421    -889.993     174.205
  O     -305.565    -890.961     172.192
  O     -305.677    -892.228     174.424
  H     -305.645    -891.889     171.902
  H     -303.318    -888.288     174.201
  H     -305.048    -888.063     174.115
  H     -304.171    -888.634     172.716

 6  7  8  9  10  11  12  13  14  15  26  29  33  34 0
 6-311+G(2d,p)
 ****
 36  38  39  40  41 0
 6-311+G(2d,p)
 ****
 1  2  3  4  5  16  17  18  19  20  21  22  23  24  25 0
 3-21G
 ****
 27  28  30  31  32  35  37  42  43  44  45  46  47 0
 3-21G
 ****
 48  49 0
 3-21G
 ****


