%nproc=1
%NoSave
%Mem=1900MB
#P OB98/GEN NMR

erre ene a

0 1
  C     -440.099     925.372    -327.684
  O     -439.167     926.424    -327.533
  P     -439.753     927.919    -327.389
  C     -437.711     928.676    -325.955
  O     -438.469     928.858    -327.141
  C     -436.223     928.948    -326.227
  O     -435.566     927.743    -326.651
  C     -435.947     929.966    -327.310
  O     -436.056     931.298    -326.845
  C     -434.509     929.644    -327.658
  O     -433.631     930.216    -326.679
  C     -434.483     928.094    -327.548
  N     -432.187     926.789    -331.913
  C     -431.758     927.502    -330.872
  N     -432.443     927.830    -329.745
  C     -433.697     927.343    -329.801
  C     -434.281     926.613    -330.798
  C     -433.468     926.320    -331.907
  N     -433.890     925.555    -332.983
  N     -435.582     926.300    -330.503
  C     -435.781     926.805    -329.310
  N     -434.679     927.443    -328.820
  O     -440.449     927.875    -325.940
  O     -440.685     928.339    -328.444
  H     -433.791     931.183    -326.685
  H     -441.132     928.579    -325.876
  H     -430.757     927.879    -330.915
  H     -436.706     926.741    -328.739
  H     -433.551     927.724    -327.116
  H     -434.193     930.024    -328.636
  H     -436.593     929.795    -328.183
  H     -435.764     929.258    -325.273
  H     -437.820     927.648    -325.602
  H     -433.205     925.237    -333.636
  H     -434.769     925.041    -332.872
  H     -438.081     929.357    -325.186
  P     -436.518     932.405    -327.905
  C     -437.761     933.971    -326.234
  O     -436.641     933.788    -327.049
  O     -438.027     932.015    -328.209
  O     -435.674     932.450    -329.123
  H     -438.291     932.339    -329.106
  H     -437.544     934.771    -325.516
  H     -437.990     933.071    -325.655
  H     -438.643     934.255    -326.829
  H     -439.577     924.442    -327.768
  H     -440.681     925.535    -328.567
  H     -440.745     925.343    -326.832

 3  4  5  6  7  8  9  10  11  12  22  25  29  30  31  32 0
 6-311+G(2d,p)
 ****
 33  36  37 0
 6-311+G(2d,p)
 ****
 1  2  13  14  15  16  17  18  19  20  21  23  24  26 0
 3-21G
 ****
 27  28  34  35  38  39  40  41  42  43  44  45  46  47  48 0
 3-21G
 ****


