%nproc=1
%NoSave
%Mem=1900MB
#P OB98/GEN NMR

erre ene a

0 1
  C      183.035      33.154    -616.788
  O      182.876      34.232    -617.694
  P      181.642      34.267    -618.712
  C      183.040      32.773    -620.259
  O      181.759      32.981    -619.669
  C      183.033      33.153    -621.734
  O      184.399      33.109    -622.236
  C      182.186      32.235    -622.639
  O      181.639      33.062    -623.675
  C      183.215      31.293    -623.232
  O      182.777      30.671    -624.423
  C      184.383      32.253    -623.409
  N      189.193      32.575    -625.121
  C      188.145      33.415    -625.225
  N      186.890      33.254    -624.758
  C      186.766      32.062    -624.137
  C      187.743      31.088    -623.984
  C      189.017      31.387    -624.498
  N      190.105      30.560    -624.377
  N      187.221      29.976    -623.335
  C      185.956      30.298    -623.101
  N      185.659      31.560    -623.519
  O      181.444      35.566    -619.424
  O      180.371      33.930    -617.786
  H      182.493      31.361    -625.051
  H      179.852      34.735    -617.631
  H      188.334      34.367    -625.743
  H      185.224      29.643    -622.648
  H      184.266      32.895    -624.285
  H      183.455      30.505    -622.509
  H      181.381      31.719    -622.097
  H      182.693      34.188    -621.821
  H      183.282      31.709    -620.159
  H      191.007      30.933    -624.661
  H      190.081      29.808    -623.690
  H      183.790      33.356    -619.719
  P      180.141      32.818    -624.191
  C      180.792      31.461    -626.263
  O      180.154      31.430    -624.994
  O      179.506      33.967    -624.906
  O      179.336      32.448    -622.853
  H      178.370      32.547    -623.003
  H      180.096      31.878    -627.008
  H      181.058      30.441    -626.551
  H      181.695      32.078    -626.239
  H      183.912      33.312    -616.196
  H      183.134      32.240    -617.335
  H      182.179      33.096    -616.149

 3  4  5  6  7  8  9  10  11  12  22  25  29  30  31  32 0
 6-311+G(2d,p)
 ****
 33  36  37 0
 6-311+G(2d,p)
 ****
 1  2  13  14  15  16  17  18  19  20  21  23  24  26 0
 3-21G
 ****
 27  28  34  35  38  39  40  41  42  43  44  45  46  47  48 0
 3-21G
 ****


