%nproc=1
%NoSave
%Mem=1900MB
#P OB98/GEN NMR

erre ene a

0 1
  C     -139.344    -569.459      70.107
  O     -140.487    -569.349      70.936
  H     -139.090    -568.461      69.730
  H     -139.552    -570.118      69.264
  H     -138.494    -569.839      70.686
  P     -141.029    -570.703      71.599
  C     -143.161    -570.816      70.112
  O     -141.930    -571.431      70.471
  C     -143.950    -571.714      69.165
  O     -144.340    -572.926      69.883
  C     -145.235    -571.086      68.616
  O     -145.411    -571.486      67.255
  C     -146.332    -571.704      69.459
  O     -147.597    -571.672      68.829
  C     -145.755    -573.108      69.666
  N     -149.331    -576.446      70.891
  C     -148.900    -576.001      69.650
  N     -149.517    -576.516      68.574
  N     -147.939    -575.117      69.482
  C     -147.390    -574.702      70.654
  C     -147.732    -575.057      71.939
  C     -148.804    -576.021      72.117
  O     -149.233    -576.444      73.178
  N     -146.956    -574.385      72.861
  C     -146.145    -573.622      72.135
  N     -146.388    -573.785      70.782
  O     -142.120    -570.185      72.654
  O     -139.996    -571.574      72.227
  H     -148.204    -572.258      69.328
  H     -142.181    -570.795      73.418
  H     -150.074    -577.113      70.948
  H     -145.400    -572.948      72.508
  H     -145.898    -573.755      68.793
  H     -146.407    -571.176      70.422
  H     -150.246    -577.226      68.610
  H     -145.228    -569.986      68.672
  H     -149.216    -576.205      67.644
  H     -143.289    -572.038      68.352
  H     -142.952    -569.859      69.620
  H     -143.754    -570.625      71.016
  P     -145.261    -570.365      66.123
  C     -147.244    -568.733      66.547
  O     -145.862    -568.975      66.687
  O     -146.355    -570.819      65.019
  O     -143.901    -570.283      65.516
  H     -145.914    -571.173      64.240
  H     -147.483    -567.778      66.967
  H     -147.793    -569.495      67.059
  H     -147.504    -568.742      65.509

 6  7  8  9  10  11  12  13  14  15  26  29  33  34 0
 6-311+G(2d,p)
 ****
 36  38  39  40  41 0
 6-311+G(2d,p)
 ****
 1  2  3  4  5  16  17  18  19  20  21  22  23  24  25 0
 3-21G
 ****
 27  28  30  31  32  35  37  42  43  44  45  46  47 0
 3-21G
 ****
 48  49 0
 3-21G
 ****


