%nproc=1
%NoSave
%Mem=1900MB
#P OB98/GEN NMR

erre ene a

0 1
  C     -423.043    -622.717    -194.229
  O     -423.022    -623.747    -193.267
  H     -423.699    -623.012    -195.051
  H     -422.033    -622.563    -194.627
  H     -423.413    -621.782    -193.797
  P     -422.372    -623.404    -191.843
  C     -423.469    -624.489    -189.760
  O     -422.630    -624.672    -190.889
  C     -424.929    -624.732    -190.131
  O     -425.112    -626.139    -190.428
  C     -425.926    -624.351    -189.029
  O     -427.088    -623.774    -189.630
  C     -426.290    -625.692    -188.413
  O     -427.571    -625.676    -187.781
  C     -426.201    -626.618    -189.621
  N     -428.524    -630.854    -188.192
  C     -429.047    -629.653    -188.616
  N     -430.390    -629.560    -188.672
  N     -428.311    -628.628    -188.968
  C     -426.982    -628.874    -188.902
  C     -426.336    -630.021    -188.487
  C     -427.158    -631.139    -188.075
  O     -426.761    -632.221    -187.665
  N     -424.976    -629.868    -188.529
  C     -424.791    -628.633    -188.971
  N     -425.982    -627.994    -189.218
  O     -423.354    -622.285    -191.253
  O     -420.961    -622.922    -191.879
  H     -428.232    -625.459    -188.475
  H     -422.874    -621.443    -191.152
  H     -429.130    -631.607    -187.913
  H     -423.842    -628.156    -189.120
  H     -427.115    -626.598    -190.225
  H     -425.542    -625.962    -187.650
  H     -431.012    -630.319    -188.463
  H     -425.512    -623.663    -188.296
  H     -430.795    -628.699    -189.020
  H     -425.147    -624.185    -191.059
  H     -423.356    -623.460    -189.395
  H     -423.169    -625.184    -188.966
  P     -427.321    -622.201    -189.379
  C     -428.812    -621.489    -191.380
  O     -428.756    -621.804    -189.994
  O     -426.275    -621.517    -190.387
  O     -427.085    -621.767    -187.974
  H     -425.534    -621.127    -189.880
  H     -429.818    -621.246    -191.650
  H     -428.483    -622.332    -191.951
  H     -428.177    -620.652    -191.581

 6  7  8  9  10  11  12  13  14  15  26  29  33  34 0
 6-311+G(2d,p)
 ****
 36  38  39  40  41 0
 6-311+G(2d,p)
 ****
 1  2  3  4  5  16  17  18  19  20  21  22  23  24  25 0
 3-21G
 ****
 27  28  30  31  32  35  37  42  43  44  45  46  47 0
 3-21G
 ****
 48  49 0
 3-21G
 ****


