%nproc=1
%NoSave
%Mem=1900MB
#P OB98/GEN NMR

erre ene a

0 1
  C      -11.353     342.902     -49.268
  O      -11.878     342.932     -47.952
  P      -12.118     344.317     -47.174
  C      -14.664     344.404     -47.616
  O      -13.398     344.980     -47.873
  C      -15.465     345.278     -46.655
  O      -16.769     344.675     -46.448
  C      -14.819     345.464     -45.276
  O      -15.128     346.791     -44.834
  C      -15.533     344.438     -44.423
  O      -15.471     344.733     -43.036
  C      -16.940     344.494     -45.026
  N      -17.720     343.292     -44.740
  C      -18.732     343.387     -43.783
  O      -18.939     344.442     -43.183
  N      -19.494     342.274     -43.525
  C      -19.214     341.150     -44.099
  N      -20.035     340.093     -43.853
  C      -18.088     340.979     -45.035
  C      -17.406     342.083     -45.325
  O      -10.921     345.202     -47.092
  O      -12.705     343.878     -45.757
  H      -14.547     344.634     -42.742
  H      -11.999     343.656     -45.098
  H      -17.877     340.013     -45.472
  H      -16.580     342.062     -46.019
  H      -17.475     345.378     -44.661
  H      -15.077     343.452     -44.577
  H      -13.730     345.339     -45.299
  H      -15.631     346.252     -47.131
  H      -20.893     340.291     -43.350
  H      -14.509     343.423     -47.151
  H      -20.085     339.308     -44.493
  H      -15.204     344.257     -48.559
  P      -14.227     347.436     -43.671
  C      -12.918     348.828     -45.428
  O      -12.856     347.944     -44.329
  O      -13.747     346.129     -42.872
  O      -14.919     348.377     -42.741
  H      -13.548     346.377     -41.949
  H      -11.899     349.073     -45.737
  H      -13.428     349.753     -45.150
  H      -13.434     348.358     -46.269
  H      -11.274     341.887     -49.597
  H      -10.384     343.356     -49.276
  H      -12.005     343.440     -49.924

 3  4  5  6  7  8  9  10  11  12  13  23  27  28  29  30  32 0
 6-311+G(2d,p)
 ****
 34  35 0
 6-311+G(2d,p)
 ****
 1  2  14  15  16  17  18  19  20  21  22  24  25  26 0
 3-21G
 ****
 31  33  36  37  38  39  40  41  42  43  44  45  46 0
 3-21G
 ****


