%nproc=1
%NoSave
%Mem=1900MB
#P OB98/GEN NMR

erre ene a

0 1
  C      623.204    -414.831    -858.025
  O      623.597    -413.470    -858.036
  H      622.404    -414.957    -857.302
  H      624.055    -415.450    -857.721
  H      622.853    -415.150    -859.008
  P      624.499    -412.941    -859.246
  C      626.676    -413.857    -858.179
  O      625.809    -413.870    -859.311
  C      627.961    -414.631    -858.462
  O      628.656    -414.024    -859.587
  C      628.906    -414.558    -857.250
  O      629.755    -415.690    -857.159
  C      629.760    -413.331    -857.567
  O      631.001    -413.320    -856.875
  C      629.882    -413.449    -859.081
  N      633.250    -409.775    -860.219
  C      633.406    -410.875    -859.396
  N      634.587    -411.009    -858.774
  N      632.443    -411.761    -859.183
  C      631.289    -411.471    -859.814
  C      631.011    -410.388    -860.637
  C      632.071    -409.446    -860.888
  O      631.989    -408.445    -861.592
  N      629.704    -410.427    -861.075
  C      629.199    -411.493    -860.512
  N      630.127    -412.175    -859.749
  O      625.096    -411.549    -858.699
  O      623.797    -412.752    -860.561
  H      630.846    -412.915    -856.006
  H      625.325    -410.963    -859.429
  H      634.010    -409.137    -860.346
  H      628.169    -411.835    -860.628
  H      630.706    -414.118    -859.344
  H      629.199    -412.444    -857.245
  H      635.276    -410.264    -858.761
  H      628.359    -414.442    -856.324
  H      634.623    -411.620    -857.949
  H      627.737    -415.663    -858.754
  H      626.122    -414.326    -857.344
  H      626.897    -412.833    -857.885
  P      629.163    -417.004    -856.440
  C      629.968    -416.892    -853.931
  O      628.939    -416.637    -854.885
  O      630.398    -418.011    -856.429
  O      627.963    -417.577    -857.117
  H      630.273    -418.716    -857.090
  H      629.639    -416.585    -852.960
  H      630.847    -416.344    -854.199
  H      630.191    -417.939    -853.918

 6  7  8  9  10  11  12  13  14  15  26  29  33  34 0
 6-311+G(2d,p)
 ****
 36  38  39  40  41 0
 6-311+G(2d,p)
 ****
 1  2  3  4  5  16  17  18  19  20  21  22  23  24  25 0
 3-21G
 ****
 27  28  30  31  32  35  37  42  43  44  45  46  47 0
 3-21G
 ****
 48  49 0
 3-21G
 ****


