%nproc=1
%NoSave
%Mem=1900MB
#P OB98/GEN NMR

erre ene a

0 1
  C     -434.085    1075.602    -350.548
  O     -433.880    1074.195    -350.581
  P     -432.663    1073.596    -349.707
  C     -432.183    1072.132    -351.794
  O     -432.305    1072.192    -350.367
  C     -431.197    1071.052    -352.205
  O     -429.854    1071.412    -351.734
  C     -431.450    1069.665    -351.636
  O     -432.465    1068.970    -352.381
  C     -430.097    1069.009    -351.802
  O     -429.941    1068.539    -353.153
  C     -429.126    1070.165    -351.536
  N     -425.651    1072.339    -348.562
  C     -425.952    1072.569    -349.880
  N     -425.263    1073.542    -350.498
  N     -426.869    1071.895    -350.552
  C     -427.533    1071.004    -349.792
  C     -427.326    1070.668    -348.453
  C     -426.271    1071.374    -347.762
  O     -425.922    1071.166    -346.603
  N     -428.218    1069.705    -348.051
  C     -428.973    1069.481    -349.099
  N     -428.579    1070.203    -350.201
  O     -433.388    1073.187    -348.329
  O     -431.533    1074.537    -349.472
  H     -429.846    1069.339    -353.724
  H     -432.736    1073.194    -347.603
  H     -424.961    1072.893    -348.090
  H     -429.801    1068.765    -349.112
  H     -428.297    1070.186    -352.245
  H     -429.957    1068.159    -351.127
  H     -424.637    1074.171    -350.017
  H     -431.705    1069.728    -350.576
  H     -425.484    1073.757    -351.452
  H     -431.161    1071.022    -353.301
  H     -431.845    1073.103    -352.170
  H     -433.174    1071.915    -352.220
  P     -433.856    1068.718    -351.606
  C     -433.426    1066.223    -350.970
  O     -434.127    1067.153    -351.789
  O     -434.929    1069.404    -352.565
  O     -433.913    1069.259    -350.222
  H     -435.729    1069.680    -352.064
  H     -433.307    1066.657    -349.946
  H     -432.466    1066.019    -351.397
  H     -434.024    1065.319    -350.888
  H     -434.919    1075.856    -351.169
  H     -433.208    1076.099    -350.908
  H     -434.282    1075.910    -349.542

 3  4  5  6  7  8  9  10  11  12  23  26  30  31  33  0
 6-311+G(2d,p)
 ****
 35  36  37  38 0
 6-311+G(2d,p)
 ****
 1  2  13  14  15  16  17  18  19  20  21  22  24  25  27  28  29 0
 3-21G
 ****
 32  34  39  40  41  42  43  44  45  46  47  48  49 0
 3-21G
 ****


