%nproc=1
%NoSave
%Mem=1900MB
#P OB98/GEN NMR

erre ene a

0 1
  C     -931.494     210.093    -283.700
  O     -932.496     210.088    -284.701
  H     -931.800     210.789    -282.904
  H     -930.542     210.436    -284.115
  H     -931.379     209.098    -283.268
  P     -932.265     209.195    -286.009
  C     -934.808     208.758    -285.840
  O     -933.707     209.010    -286.701
  C     -935.844     207.867    -286.535
  O     -936.390     208.627    -287.650
  C     -935.224     206.571    -287.089
  O     -935.907     205.384    -286.669
  C     -935.143     206.829    -288.600
  O     -935.162     205.676    -289.409
  C     -936.303     207.806    -288.834
  N     -936.129     208.654    -290.014
  C     -936.947     208.377    -291.125
  O     -937.814     207.486    -291.159
  N     -936.756     209.161    -292.222
  C     -935.840     210.173    -292.340
  O     -935.709     210.862    -293.335
  C     -934.984     210.405    -291.148
  C     -935.164     209.641    -290.071
  O     -931.495     207.930    -285.817
  O     -931.509     210.193    -287.023
  H     -935.941     205.158    -289.159
  H     -930.558     209.967    -287.045
  H     -937.343     208.994    -293.012
  H     -934.251     211.180    -291.213
  H     -934.570     209.792    -289.177
  H     -937.242     207.275    -288.948
  H     -934.183     207.351    -288.804
  H     -934.220     206.430    -286.706
  H     -936.659     207.662    -285.839
  H     -935.259     209.721    -285.570
  H     -934.442     208.259    -284.934
  P     -935.590     204.581    -285.334
  C     -937.712     203.106    -285.778
  O     -936.340     203.158    -285.420
  O     -935.726     205.351    -284.051
  O     -934.020     204.189    -285.509
  H     -933.638     204.188    -284.613
  H     -938.041     202.088    -285.785
  H     -937.843     203.529    -286.752
  H     -938.287     203.662    -285.067

 6  7  8  9  10  11  12  13  14  15  16  26  31  32  33  34  35 0
 6-311+G(2d,p)
 ****
 36  37 0
 6-311+G(2d,p)
 ****
 1  2  3  4  5  17  18  19  20  21  22  23  24  25 0
 3-21G
 ****
 27  28  29  30  38  39  40  41  42  43  44  45 0
 3-21G
 ****


