%nproc=1
%NoSave
%Mem=1900MB
#P OB98/GEN NMR

erre ene a

0 1
  C       91.687      86.458    -165.819
  O       91.006      87.636    -165.434
  H       92.645      86.734    -166.264
  H       91.099      85.911    -166.559
  H       91.874      85.818    -164.948
  P       89.679      87.465    -164.549
  C       90.582      89.319    -162.959
  O       89.491      88.840    -163.735
  C       90.364      90.791    -162.604
  O       90.410      91.574    -163.839
  C       89.015      91.081    -161.932
  O       89.207      92.121    -160.962
  C       88.164      91.617    -163.070
  O       87.077      92.431    -162.649
  C       89.221      92.386    -163.875
  N       88.799      92.638    -165.256
  C       87.886      93.670    -165.470
  O       87.472      94.434    -164.598
  N       87.440      93.801    -166.762
  C       87.788      93.017    -167.823
  O       87.334      93.174    -168.957
  C       88.748      91.939    -167.533
  C       89.198      91.802    -166.286
  O       90.132      86.426    -163.420
  O       88.462      87.011    -165.288
  H       89.967      85.507    -163.712
  H       87.458      93.209    -162.188
  H       86.777      94.545    -166.933
  H       89.039      91.291    -168.348
  H       89.893      91.000    -166.029
  H       89.454      93.340    -163.388
  H       87.757      90.783    -163.660
  H       88.558      90.209    -161.451
  H       91.199      91.130    -161.978
  H       91.505      89.218    -163.533
  H       90.666      88.717    -162.046
  P       88.146      92.217    -159.761
  C       88.805      90.250    -158.148
  O       88.903      91.638    -158.469
  O       87.110      91.062    -160.167
  O       87.553      93.580    -159.609
  H       87.548      90.298    -160.593
  H       89.369      90.048    -157.262
  H       89.193      89.668    -158.958
  H       87.779      89.993    -157.984

 6  7  8  9  10  11  12  13  14  15  16  27  31  32  33  34  35 0
 6-311+G(2d,p)
 ****
 36  37 0
 6-311+G(2d,p)
 ****
 1  2  3  4  5  17  18  19  20  21  22  23  24  25 0
 3-21G
 ****
 26  28  29  30  38  39  40  41  42  43  44  45 0
 3-21G
 ****


