%nproc=1
%NoSave
%Mem=1900MB
#P OB98/GEN NMR

erre ene a

0 1
  C       71.340     137.936     -22.855
  O       70.934     136.869     -23.688
  H       72.422     138.059     -22.951
  H       71.105     137.712     -21.812
  H       70.855     138.869     -23.153
  P       69.367     136.583     -23.864
  C       69.335     137.387     -26.311
  O       68.834     137.583     -24.996
  C       68.200     136.975     -27.245
  O       67.231     138.043     -27.343
  C       68.646     136.697     -28.674
  O       69.301     135.449     -28.781
  C       67.324     136.798     -29.411
  O       66.579     135.577     -29.310
  C       66.611     137.935     -28.645
  N       66.674     139.206     -29.367
  C       65.639     139.455     -30.261
  O       64.702     138.679     -30.451
  N       65.744     140.611     -30.986
  C       66.826     141.442     -31.001
  O       66.986     142.324     -31.840
  C       67.860     141.164     -29.993
  C       67.744     140.067     -29.242
  O       68.568     136.564     -22.604
  O       69.327     135.160     -24.600
  H       69.112     134.467     -23.947
  H       65.732     135.741     -29.776
  H       65.017     140.777     -31.669
  H       68.701     141.843     -29.924
  H       68.510     139.822     -28.514
  H       65.558     137.681     -28.474
  H       67.468     137.013     -30.471
  H       69.307     137.502     -29.017
  H       67.699     136.099     -26.814
  H       70.090     136.592     -26.285
  H       69.807     138.313     -26.656
  P       70.885     135.383     -29.008
  C       71.466     134.189     -26.807
  O       71.599     135.383     -27.573
  O       71.431     136.378     -29.978
  O       71.141     133.889     -29.527
  H       71.687     133.927     -30.337
  H       71.979     134.304     -25.875
  H       71.889     133.369     -27.348
  H       70.430     133.997     -26.622

 6  7  8  9  10  11  12  13  14  15  16  27  31  32  33  34  35 0
 6-311+G(2d,p)
 ****
 36  37 0
 6-311+G(2d,p)
 ****
 1  2  3  4  5  17  18  19  20  21  22  23  24  25 0
 3-21G
 ****
 26  28  29  30  38  39  40  41  42  43  44  45 0
 3-21G
 ****


