%nproc=1
%NoSave
%Mem=1900MB
#P OB98/GEN NMR

erre ene a

0 1
  C     -548.074    -495.655     869.681
  O     -547.754    -494.276     869.619
  P     -546.381    -493.807     870.312
  C     -545.020    -494.756     868.287
  O     -545.310    -493.651     869.130
  C     -544.651    -494.256     866.889
  O     -545.840    -493.996     866.118
  C     -543.839    -492.962     866.886
  O     -542.476    -493.234     867.122
  C     -544.128    -492.435     865.482
  O     -543.292    -493.090     864.506
  C     -545.601    -492.827     865.293
  N     -549.515    -490.066     863.646
  C     -548.686    -490.939     862.964
  N     -548.977    -491.137     861.653
  N     -547.672    -491.568     863.501
  C     -547.500    -491.261     864.811
  C     -548.233    -490.402     865.598
  C     -549.383    -489.756     864.996
  O     -550.194    -489.056     865.583
  N     -547.740    -490.338     866.866
  C     -546.722    -491.172     866.859
  N     -546.542    -491.773     865.644
  O     -545.905    -495.124     871.096
  O     -546.496    -492.617     871.207
  H     -543.408    -492.661     863.645
  H     -546.148    -495.070     872.037
  H     -550.291    -489.629     863.183
  H     -546.097    -491.392     867.721
  H     -545.824    -493.105     864.254
  H     -543.929    -491.361     865.395
  H     -549.728    -490.674     861.163
  H     -544.234    -492.262     867.632
  H     -548.378    -491.765     861.131
  H     -544.092    -495.057     866.386
  H     -545.902    -495.396     868.217
  H     -544.199    -495.332     868.728
  P     -541.574    -492.042     867.707
  C     -542.037    -492.375     870.242
  O     -541.111    -492.468     869.173
  O     -542.642    -490.867     867.968
  O     -540.485    -491.583     866.800
  H     -542.231    -490.000     867.770
  H     -541.797    -493.138     870.985
  H     -543.066    -492.529     869.895
  H     -541.965    -491.391     870.711
  H     -549.006    -495.827     869.185
  H     -548.153    -495.957     870.704
  H     -547.304    -496.222     869.201

 3  4  5  6  7  8  9  10  11  12  23  26  30  31 0
 6-311+G(2d,p)
 ****
 33  35  36  37  38 0
 6-311+G(2d,p)
 ****
 1  2  13  14  15  16  17  18  19  20  21  22  24  25 0
 3-21G
 ****
 27  28  29  32  34  39  40  41  42  43  44  45  46  47  48  49 0
 3-21G
 ****


