%nproc=1
%NoSave
%Mem=1900MB
#P OB98/GEN NMR

erre ene a

0 1
  C     -543.391     535.146    -898.952
  O     -543.675     533.816    -898.582
  P     -544.020     533.545    -897.032
  C     -541.496     533.706    -896.442
  O     -542.700     532.928    -896.362
  C     -540.702     533.568    -895.152
  O     -541.526     533.962    -894.012
  C     -540.255     532.128    -894.862
  O     -539.112     531.781    -895.642
  C     -539.959     532.233    -893.362
  O     -538.622     532.681    -893.112
  C     -541.001     533.253    -892.872
  N     -542.063     532.676    -892.072
  C     -541.934     532.799    -890.672
  O     -540.952     533.372    -890.202
  N     -542.907     532.222    -889.882
  C     -543.923     531.612    -890.402
  N     -544.846     531.078    -889.592
  C     -544.069     531.426    -891.882
  C     -543.102     532.004    -892.632
  O     -545.030     532.280    -897.102
  O     -544.657     534.715    -896.312
  H     -538.049     532.191    -893.722
  H     -545.632     532.263    -896.332
  H     -544.919     530.884    -892.282
  H     -543.149     531.916    -893.732
  H     -540.507     534.044    -892.252
  H     -540.044     531.244    -892.862
  H     -541.085     531.436    -895.012
  H     -539.847     534.239    -895.192
  H     -544.689     531.195    -888.582
  H     -541.756     534.771    -896.572
  H     -545.658     530.595    -889.912
  H     -540.926     533.380    -897.302
  P     -539.369     530.792    -896.872
  C     -539.653     528.776    -895.272
  O     -538.884     529.342    -896.322
  O     -538.174     531.174    -897.882
  O     -540.731     530.820    -897.542
  H     -538.274     530.705    -898.722
  H     -539.302     527.743    -895.122
  H     -540.706     528.741    -895.572
  H     -539.536     529.360    -894.352
  H     -543.180     535.187    -900.000
  H     -542.541     535.495    -898.403
  H     -544.236     535.765    -898.733

 3  4  5  6  7  8  9  10  11  12  13  21  23  27  28  29  30  32 0
 6-311+G(2d,p)
 ****
 34  35 0
 6-311+G(2d,p)
 ****
 1  2  14  15  16  17  18  19  20  22  24  25  26 0
 3-21G
 ****
 31  33  36  37  38  39  40  41  42  43  44  45  46 0
 3-21G
 ****


