%nproc=1
%NoSave
%Mem=1900MB
#P OB98/GEN NMR

erre ene a

0 1
  C       68.076      73.403     237.215
  O       67.126      73.953     236.318
  P       67.236      73.526     234.770
  C       65.132      72.026     235.031
  O       66.497      72.108     234.641
  C       64.325      71.146     234.071
  O       63.033      70.867     234.662
  C       64.092      71.780     232.699
  O       64.159      70.737     231.721
  C       62.666      72.290     232.782
  O       62.070      72.405     231.490
  C       62.026      71.238     233.698
  N       60.820      71.735     234.351
  C       59.710      71.980     233.534
  O       59.806      71.847     232.314
  N       58.544      72.415     234.110
  C       58.519      72.687     235.378
  N       57.339      73.113     235.904
  C       59.701      72.562     236.254
  C       60.798      72.067     235.685
  O       68.781      73.152     234.610
  O       66.801      74.579     233.804
  H       62.636      72.985     230.940
  H       69.100      73.360     233.710
  H       59.633      72.838     237.298
  H       61.705      71.915     236.259
  H       61.766      70.334     233.129
  H       62.648      73.276     233.257
  H       64.823      72.558     232.457
  H       64.850      70.190     233.963
  H       56.547      73.207     235.280
  H       64.695      73.034     235.024
  H       57.224      73.351     236.880
  H       65.069      71.638     236.057
  P       64.732      71.117     230.271
  C       67.134      70.924     231.153
  O       66.171      71.768     230.550
  O       63.859      72.412     229.910
  O       64.651      70.090     229.190
  H       64.070      72.708     229.007
  H       68.098      71.443     231.159
  H       67.244      69.995     230.585
  H       66.849      70.706     232.185
  H       67.887      73.769     238.203
  H       69.061      73.689     236.911
  H       67.997      72.336     237.208

 3  4  5  6  7  8  9  10  11  12  13  21  23  27  28  29  30  32 0
 6-311+G(2d,p)
 ****
 34  35 0
 6-311+G(2d,p)
 ****
 1  2  14  15  16  17  18  19  20  22  24  25  26 0
 3-21G
 ****
 31  33  36  37  38  39  40  41  42  43  44  45  46 0
 3-21G
 ****


