%nproc=1
%NoSave
%Mem=1900MB
#P OB98/GEN NMR

erre ene a

0 1
  C        5.275     164.316     116.937
  O        5.401     165.744     116.940
  P        4.602     166.585     115.826
  C        2.815     167.473     117.460
  O        3.074     166.725     116.276
  C        1.364     168.013     117.457
  O        1.090     168.673     116.202
  C        0.316     166.914     117.649
  O       -0.628     167.208     118.688
  C       -0.273     166.731     116.255
  O       -1.588     166.179     116.267
  C       -0.126     168.130     115.639
  N       -0.097     168.076     114.175
  C       -1.329     168.176     113.530
  O       -2.410     168.214     114.125
  N       -1.290     168.130     112.162
  C       -0.176     167.964     111.400
  O       -0.220     167.907     110.172
  C        1.089     167.807     112.124
  C        1.058     167.879     113.467
  O        4.815     166.175     114.418
  O        5.153     168.086     116.071
  H       -1.878     166.041     115.337
  H        5.266     168.507     115.193
  H       -2.178     168.231     111.679
  H        1.991     167.634     111.558
  H        1.977     167.750     114.042
  H       -0.953     168.778     115.930
  H        0.379     166.033     115.710
  H        0.767     165.968     117.969
  H        1.293     168.763     118.262
  H        3.497     168.306     117.525
  H        2.997     166.851     118.345
  P       -1.095     166.173     119.812
  C        0.176     167.239     121.796
  O        0.045     166.125     120.946
  O       -1.545     164.834     119.311
  O       -2.315     166.922     120.521
  H       -3.017     166.292     120.732
  H        1.188     167.218     122.231
  H       -0.539     167.207     122.616
  H        0.086     168.188     121.246
  H        5.861     163.905     117.732
  H        5.621     163.929     116.001
  H        4.248     164.048     117.076

 3  4  5  6  7  8  9  10  11  12  13  23  28  29  30  31  32 0
 6-311+G(2d,p)
 ****
 33  34 0
 6-311+G(2d,p)
 ****
 1  2  14  15  16  17  18  19  20  21  22  24  25  26  27 0
 3-21G
 ****
 35  36  37  38  39  40  41  42  43  44  45 0
 3-21G
 ****


