%nproc=1
%NoSave
%Mem=1900MB
#P OB98/GEN NMR

erre ene a

0 1
  C     -120.077     101.033     573.004
  O     -119.008     100.748     573.890
  H     -120.134     102.116     572.859
  H     -121.029     100.688     573.419
  H     -119.903     100.555     572.036
  P     -118.816      99.237     574.386
  C     -117.354      99.997     576.381
  O     -118.541      99.331     575.960
  C     -117.436     100.324     577.869
  O     -118.402     101.369     578.100
  C     -117.893      99.144     578.719
  O     -116.844      98.209     578.886
  C     -118.349      99.855     579.978
  O     -117.234     100.195     580.814
  C     -119.007     101.127     579.392
  N     -120.458     101.009     579.276
  C     -121.156     100.831     580.475
  O     -120.554     100.785     581.546
  N     -122.521     100.682     580.420
  C     -123.134     100.728     579.281
  N     -124.486     100.574     579.295
  C     -122.438     100.928     577.993
  C     -121.114     101.053     578.067
  O     -117.826      98.401     573.635
  O     -120.296      98.628     574.311
  H     -117.613     100.668     581.583
  H     -120.461      98.236     573.431
  H     -122.992     100.965     577.068
  H     -120.523     101.209     577.167
  H     -118.783     102.000     580.017
  H     -119.026      99.238     580.563
  H     -118.768      98.668     578.260
  H     -116.455     100.690     578.198
  H     -124.922     100.430     580.202
  H     -117.276     100.921     575.798
  H     -125.076     100.680     578.481
  H     -116.471      99.383     576.179
  P     -117.164      96.646     579.059
  C     -114.969      96.351     580.379
  O     -116.384      96.198     580.393
  O     -116.908      95.808     577.851
  O     -118.700      96.641     579.524
  H     -119.305      96.847     578.769
  H     -114.565      96.022     581.314
  H     -114.723      97.381     580.227
  H     -114.555      95.765     579.586

 6  7  8  9  10  11  12  13  14  15  16  26  30  31  32  33  35 0
 6-311+G(2d,p)
 ****
 37  38 0
 6-311+G(2d,p)
 ****
 1  2  3  4  5  17  18  19  20  21  22  23  24  25 0
 3-21G
 ****
 27  28  29  34  36  39  40  41  42  43  44  45  46 0
 3-21G
 ****


