%nproc=1
%NoSave
%Mem=1900MB
#P OB98/GEN NMR

erre ene a

0 1
  C      338.121      73.074    -343.849
  O      337.570      73.640    -345.021
  H      337.468      72.282    -343.473
  H      339.097      72.643    -344.093
  H      338.259      73.842    -343.077
  P      336.216      74.484    -344.850
  C      334.856      72.440    -345.704
  O      335.044      73.396    -344.672
  C      333.368      72.131    -345.886
  O      332.894      71.406    -344.715
  C      332.496      73.390    -346.037
  O      331.474      73.128    -346.999
  C      331.882      73.556    -344.657
  O      330.654      74.277    -344.699
  C      331.746      72.106    -344.206
  N      329.302      69.891    -340.296
  C      329.200      69.735    -341.636
  N      329.895      70.360    -342.611
  C      330.806      71.195    -342.081
  C      331.025      71.468    -340.740
  C      330.215      70.778    -339.823
  N      330.282      70.964    -338.458
  N      332.021      72.415    -340.589
  C      332.398      72.705    -341.826
  N      331.687      71.998    -342.757
  O      335.977      75.059    -346.326
  O      336.254      75.569    -343.825
  H      330.019      73.778    -345.258
  H      336.549      75.835    -346.471
  H      328.459      69.008    -341.969
  H      333.164      73.421    -342.096
  H      330.838      71.628    -344.601
  H      332.578      74.103    -344.008
  H      333.072      74.264    -346.345
  H      333.250      71.458    -346.748
  H      335.392      71.518    -345.438
  H      329.624      70.469    -337.876
  H      330.913      71.664    -338.089
  H      335.269      72.833    -346.644
  P      331.778      73.568    -348.514
  C      331.430      76.099    -348.981
  O      332.306      75.089    -348.507
  O      330.322      73.675    -349.171
  O      332.639      72.607    -349.258
  H      330.298      73.189    -350.018
  H      331.915      77.051    -348.916
  H      330.542      76.110    -348.384
  H      331.172      75.898    -350.000

 6  7  8  9  10  11  12  13  14  15  25  28  32  33  34  35 0
 6-311+G(2d,p)
 ****
 36  39  40 0
 6-311+G(2d,p)
 ****
 1  2  3  4  5  16  17  18  19  20  21  22  23  24 0
 3-21G
 ****
 26  27  29  30  31  37  38  41  42  43  44  45  46  47 0
 3-21G
 ****
 48 0
 3-21G
 ****


