%nproc=1
%NoSave
%Mem=1900MB
#P OB98/GEN NMR

erre ene a

0 1
  C     1725.191     -38.076    -332.313
  O     1725.923     -37.190    -333.135
  H     1725.706     -38.144    -331.356
  H     1725.171     -39.075    -332.768
  H     1724.187     -37.710    -332.164
  P     1725.401     -36.980    -334.638
  C     1723.589     -35.176    -334.377
  O     1723.849     -36.571    -334.471
  C     1722.219     -34.941    -333.710
  O     1721.196     -35.559    -334.538
  C     1722.081     -35.536    -332.312
  O     1721.255     -34.665    -331.500
  C     1721.346     -36.821    -332.517
  O     1720.685     -37.286    -331.364
  C     1720.461     -36.442    -333.701
  N     1717.860     -40.830    -333.309
  C     1718.008     -39.775    -332.450
  N     1718.686     -38.642    -332.654
  C     1719.225     -38.627    -333.905
  C     1719.167     -39.595    -334.857
  C     1718.460     -40.787    -334.539
  N     1718.347     -41.868    -335.353
  N     1719.900     -39.232    -336.001
  C     1720.383     -38.022    -335.689
  N     1720.017     -37.636    -334.432
  O     1725.639     -38.122    -335.570
  O     1726.082     -35.596    -335.051
  H     1720.162     -38.077    -331.626
  H     1725.986     -34.931    -334.356
  H     1717.500     -39.875    -331.508
  H     1720.989     -37.424    -336.360
  H     1719.526     -35.925    -333.354
  H     1722.079     -37.613    -332.821
  H     1723.072     -35.672    -331.807
  H     1722.013     -33.851    -333.715
  H     1723.621     -34.689    -335.327
  H     1717.803     -42.648    -335.037
  H     1718.774     -41.837    -336.282
  H     1724.376     -34.715    -333.724
  P     1721.941     -33.859    -330.280
  C     1722.419     -31.774    -331.732
  O     1722.996     -32.766    -330.886
  O     1722.521     -34.687    -329.185
  O     1720.755     -32.904    -329.731
  H     1720.745     -32.964    -328.771
  H     1723.184     -31.110    -332.076
  H     1721.686     -31.220    -331.184
  H     1721.954     -32.248    -332.571

 6  7  8  9  10  11  12  13  14  15  25  28  32  33  34  35 0
 6-311+G(2d,p)
 ****
 36  39  40 0
 6-311+G(2d,p)
 ****
 1  2  3  4  5  16  17  18  19  20  21  22  23  24 0
 3-21G
 ****
 26  27  29  30  31  37  38  41  42  43  44  45  46  47 0
 3-21G
 ****
 48 0
 3-21G
 ****


