%nproc=1
%NoSave
%Mem=1900MB
#P OB98/GEN NMR

erre ene a

0 1
  C      -48.581      52.778     139.040
  O      -49.895      52.752     139.566
  P      -51.081      53.383     138.694
  C      -52.191      55.727     138.505
  O      -51.070      54.969     138.932
  C      -52.130      57.142     139.082
  O      -50.960      57.831     138.548
  C      -53.359      58.004     138.753
  O      -53.585      58.876     139.871
  C      -52.880      58.816     137.565
  O      -53.648      59.990     137.342
  C      -51.428      59.072     137.979
  N      -50.586      59.506     136.864
  C      -50.556      60.867     136.580
  O      -51.192      61.716     137.205
  N      -49.808      61.233     135.493
  C      -49.175      60.385     134.631
  O      -48.618      60.769     133.610
  C      -49.241      58.958     134.982
  C      -49.931      58.590     136.064
  O      -52.399      52.892     139.457
  O      -51.083      52.975     137.258
  H      -53.104      60.599     136.812
  H      -52.792      52.126     139.000
  H      -49.765      62.217     135.280
  H      -48.733      58.259     134.331
  H      -50.014      57.543     136.336
  H      -51.390      59.824     138.778
  H      -52.935      58.202     136.658
  H      -54.259      57.421     138.536
  H      -51.995      57.070     140.169
  H      -53.105      55.239     138.846
  H      -52.217      55.758     137.408
  P      -55.097      59.323     140.181
  C      -56.492      61.423     139.489
  O      -55.426      60.543     139.199
  O      -54.914      60.019     141.613
  O      -56.070      58.189     140.186
  H      -54.128      60.586     141.656
  H      -56.610      61.571     140.566
  H      -57.418      61.017     139.078
  H      -56.291      62.390     139.022
  H      -47.909      52.322     139.737
  H      -48.285      53.792     138.870
  H      -48.556      52.240     138.116

 3  4  5  6  7  8  9  10  11  12  13  23  28  29  30  31  32 0
 6-311+G(2d,p)
 ****
 33  34 0
 6-311+G(2d,p)
 ****
 1  2  14  15  16  17  18  19  20  21  22  24  25  26 0
 3-21G
 ****
 27  35  36  37  38  39  40  41  42  43  44  45 0
 3-21G
 ****


