%nproc=1
%NoSave
%Mem=1900MB
#P OB98/GEN NMR

erre ene a

0 1
  C      161.685    -398.500       0.801
  O      161.077    -398.442      -0.487
  P      160.845    -399.825      -1.258
  C      158.263    -399.394      -1.099
  O      159.340    -400.301      -0.970
  C      156.971    -400.129      -1.504
  O      157.207    -400.812      -2.761
  C      156.505    -401.209      -0.535
  O      155.129    -401.493      -0.796
  C      157.352    -402.389      -0.959
  O      156.816    -403.622      -0.484
  C      157.401    -402.227      -2.494
  N      158.670    -402.688      -3.100
  C      159.109    -403.978      -2.814
  O      158.506    -404.763      -2.085
  N      160.307    -404.341      -3.367
  C      161.072    -403.576      -4.194
  O      162.179    -403.918      -4.590
  C      160.496    -402.281      -4.573
  C      159.348    -401.897      -4.013
  O      161.748    -400.865      -0.447
  O      161.208    -399.774      -2.704
  H      157.420    -404.330      -0.802
  H      162.552    -401.082      -0.955
  H      160.669    -405.249      -3.116
  H      161.043    -401.671      -5.282
  H      158.917    -400.932      -4.269
  H      156.589    -402.786      -2.978
  H      158.357    -402.289      -0.540
  H      156.643    -400.963       0.521
  H      156.177    -399.391      -1.674
  H      158.509    -398.626      -1.835
  H      158.102    -398.875      -0.147
  P      154.083    -401.315       0.408
  C      152.877    -399.509      -0.967
  O      153.484    -399.834       0.268
  O      154.576    -401.688       1.764
  O      152.850    -402.234      -0.050
  H      152.292    -402.441       0.720
  H      152.100    -398.763      -0.792
  H      152.427    -400.391      -1.435
  H      153.631    -399.087      -1.637
  H      161.778    -397.510       1.196
  H      162.655    -398.943       0.718
  H      161.078    -399.090       1.456

 3  4  5  6  7  8  9  10  11  12  13  23  28  29  30  31  32 0
 6-311+G(2d,p)
 ****
 33  34 0
 6-311+G(2d,p)
 ****
 1  2  14  15  16  17  18  19  20  21  22  24  25  26  27 0
 3-21G
 ****
 35  36  37  38  39  40  41  42  43  44  45 0
 3-21G
 ****


