%nproc=1
%NoSave
%Mem=1900MB
#P OB98/GEN NMR

erre ene a

0 1
  C      380.797     898.355     380.112
  O      380.204     899.644     380.058
  P      378.843     899.875     380.882
  C      377.498     900.307     378.678
  O      377.630     899.544     379.891
  C      376.181     899.963     378.007
  O      376.141     898.580     377.606
  C      374.965     900.168     378.911
  O      374.585     901.543     378.987
  C      373.922     899.306     378.211
  O      373.298     900.017     377.117
  C      374.775     898.138     377.690
  N      374.621     896.917     378.471
  C      373.830     895.917     377.931
  O      373.269     896.038     376.829
  N      373.684     894.788     378.684
  C      374.177     894.584     379.930
  O      373.963     893.562     380.584
  C      374.984     895.692     380.479
  C      375.149     896.783     379.743
  O      378.776     901.454     381.064
  O      378.796     899.158     382.185
  H      372.703     900.674     377.527
  H      378.384     901.680     381.941
  H      373.136     894.048     378.280
  H      375.396     895.550     381.475
  H      375.732     897.616     380.137
  H      374.488     897.893     376.636
  H      373.122     898.999     378.889
  H      375.164     899.755     379.903
  H      376.092     900.579     377.082
  H      378.326     900.072     378.009
  H      377.550     901.369     378.925
  P      373.395     901.902     379.984
  C      371.943     902.817     378.003
  O      372.073     901.889     379.080
  O      373.686     903.458     380.255
  O      373.362     901.051     381.208
  H      374.101     903.881     379.494
  H      372.908     903.013     377.518
  H      371.534     903.752     378.383
  H      371.260     902.398     377.254
  H      381.689     898.348     379.522
  H      380.110     897.630     379.729
  H      381.039     898.116     381.127

 3  4  5  6  7  8  9  10  11  12  13  23  28  29  30  31  32 0
 6-311+G(2d,p)
 ****
 33  34 0
 6-311+G(2d,p)
 ****
 1  2  14  15  16  17  18  19  20  21  22  24  25  26 0
 3-21G
 ****
 27  35  36  37  38  39  40  41  42  43  44  45 0
 3-21G
 ****


