%nproc=1
%NoSave
%Mem=1900MB
#P OB98/GEN NMR

erre ene a

0 1
  C      -60.459     496.324     -56.598
  O      -59.990     495.463     -55.583
  H      -59.631     496.559     -57.274
  H      -60.825     497.252     -56.154
  H      -61.258     495.847     -57.176
  P      -61.092     494.739     -54.666
  C      -60.194     492.352     -55.141
  O      -60.451     493.351     -54.166
  C      -59.102     491.402     -54.653
  O      -57.821     492.085     -54.693
  C      -59.315     490.903     -53.211
  O      -58.915     489.529     -53.130
  C      -58.356     491.756     -52.396
  O      -57.958     491.126     -51.175
  C      -57.219     491.965     -53.393
  N      -53.821     493.869     -50.189
  C      -54.329     492.584     -50.297
  N      -53.868     491.674     -49.404
  N      -55.210     492.230     -51.196
  C      -55.555     493.240     -52.034
  C      -55.127     494.550     -52.030
  C      -54.177     494.934     -51.010
  O      -53.708     496.056     -50.850
  N      -55.739     495.275     -53.025
  C      -56.525     494.408     -53.629
  N      -56.445     493.152     -53.068
  O      -62.204     494.283     -55.724
  O      -61.681     495.588     -53.585
  H      -57.497     491.805     -50.635
  H      -63.037     494.754     -55.550
  H      -53.152     494.090     -49.464
  H      -57.183     494.627     -54.466
  H      -56.524     491.119     -53.412
  H      -58.838     492.711     -52.145
  H      -53.156     491.861     -48.729
  H      -60.345     491.001     -52.869
  H      -54.197     490.719     -49.498
  H      -59.037     490.552     -55.351
  H      -59.862     492.843     -56.064
  H      -61.114     491.794     -55.337
  P      -60.089     488.438     -52.959
  C      -59.007     486.731     -54.577
  O      -59.475     486.983     -53.260
  O      -61.038     488.726     -54.213
  O      -60.838     488.563     -51.669
  H      -61.867     489.146     -53.925
  H      -58.628     485.732     -54.636
  H      -58.227     487.423     -54.817
  H      -59.813     486.848     -55.271

 6  7  8  9  10  11  12  13  14  15  26  29  33  34 0
 6-311+G(2d,p)
 ****
 36  38  39  40  41 0
 6-311+G(2d,p)
 ****
 1  2  3  4  5  16  17  18  19  20  21  22  23  24  25 0
 3-21G
 ****
 27  28  30  31  32  35  37  42  43  44  45  46  47 0
 3-21G
 ****
 48  49 0
 3-21G
 ****


