%nproc=1
%NoSave
%Mem=1900MB
#P OB98/GEN NMR

erre ene a

0 1
  C      -11.639     178.100     127.873
  O      -13.025     178.211     127.559
  P      -13.452     179.040     126.257
  C      -12.159     178.434     124.029
  O      -13.195     178.164     124.948
  C      -12.095     177.301     122.990
  O      -12.015     176.020     123.649
  C      -13.314     177.257     122.072
  O      -13.170     178.113     120.954
  C      -13.378     175.788     121.707
  O      -12.396     175.479     120.699
  C      -12.995     175.125     123.052
  N      -14.072     174.878     124.038
  C      -15.110     174.003     123.723
  O      -15.211     173.403     122.657
  N      -16.055     173.818     124.700
  C      -15.983     174.265     125.986
  O      -16.831     174.020     126.834
  C      -14.795     175.060     126.309
  C      -13.917     175.335     125.339
  O      -12.352     180.195     126.166
  O      -14.843     179.592     126.306
  H      -12.589     174.582     120.373
  H      -12.767     181.070     126.292
  H      -16.851     173.245     124.465
  H      -14.674     175.398     127.330
  H      -13.032     175.924     125.568
  H      -12.499     174.162     122.881
  H      -14.342     175.527     121.279
  H      -14.220     177.502     122.636
  H      -11.185     177.433     122.391
  H      -11.198     178.524     124.540
  H      -12.346     179.392     123.534
  P      -13.744     179.607     121.014
  C      -13.128     181.260     122.878
  O      -12.643     180.460     121.817
  O      -15.148     179.751     121.493
  O      -13.563     180.138     119.510
  H      -14.399     180.032     119.002
  H      -12.275     181.656     123.435
  H      -13.747     180.664     123.552
  H      -13.709     182.096     122.478
  H      -11.521     177.520     128.765
  H      -11.228     179.076     128.025
  H      -11.128     177.620     127.065

 3  4  5  6  7  8  9  10  11  12  13  23  28  29  30  31  32 0
 6-311+G(2d,p)
 ****
 33  34 0
 6-311+G(2d,p)
 ****
 1  2  14  15  16  17  18  19  20  21  22  24  25  26  27 0
 3-21G
 ****
 35  36  37  38  39  40  41  42  43  44  45 0
 3-21G
 ****


