%nproc=1
%NoSave
%Mem=1900MB
#P OB98/GEN NMR

erre ene a

0 1
  C     -284.098     311.343     502.317
  O     -283.280     312.461     502.567
  H     -283.559     310.651     501.670
  H     -285.013     311.667     501.805
  H     -284.365     310.827     503.244
  P     -283.613     313.401     503.821
  C     -285.566     314.776     502.836
  O     -284.206     314.784     503.266
  C     -285.849     315.886     501.829
  O     -285.668     317.175     502.458
  C     -284.896     315.846     500.628
  O     -285.316     315.001     499.571
  C     -284.884     317.310     500.185
  O     -285.947     317.582     499.254
  C     -285.106     318.077     501.490
  N     -281.794     321.970     501.318
  C     -282.830     321.678     500.461
  N     -282.975     322.505     499.399
  N     -283.637     320.659     500.613
  C     -283.301     319.861     501.664
  C     -282.284     320.039     502.571
  C     -281.447     321.211     502.430
  O     -280.525     321.520     503.174
  N     -282.226     318.999     503.466
  C     -283.152     318.164     503.046
  N     -283.883     318.679     502.003
  O     -282.161     313.840     504.354
  O     -284.407     312.756     504.912
  H     -285.983     318.544     499.105
  H     -282.197     313.970     505.319
  H     -281.225     322.784     501.157
  H     -283.369     317.193     503.492
  H     -285.827     318.899     501.361
  H     -283.940     317.555     499.675
  H     -282.336     323.253     499.183
  H     -283.881     315.576     500.940
  H     -283.597     322.225     498.642
  H     -286.902     315.833     501.510
  H     -286.172     314.923     503.734
  H     -285.830     313.800     502.419
  P     -284.301     313.953     498.899
  C     -282.877     315.800     497.675
  O     -283.684     314.633     497.599
  O     -285.289     312.846     498.302
  O     -283.278     313.375     499.819
  H     -285.336     312.071     498.902
  H     -282.570     316.086     496.691
  H     -282.013     315.598     498.274
  H     -283.440     316.595     498.118

 6  7  8  9  10  11  12  13  14  15  26  29  33  34 0
 6-311+G(2d,p)
 ****
 36  38  39  40  41 0
 6-311+G(2d,p)
 ****
 1  2  3  4  5  16  17  18  19  20  21  22  23  24  25 0
 3-21G
 ****
 27  28  30  31  32  35  37  42  43  44  45  46  47 0
 3-21G
 ****
 48  49 0
 3-21G
 ****


