%nproc=1
%NoSave
%Mem=1900MB
#P OB98/GEN NMR

erre ene a

0 1
  C      -67.112     489.481    -603.846
  O      -67.400     489.657    -602.467
  H      -67.129     488.411    -604.077
  H      -66.117     489.874    -604.071
  H      -67.861     489.986    -604.462
  P      -67.652     491.163    -601.983
  C      -70.250     491.088    -602.368
  O      -69.000     491.681    -602.699
  C      -71.278     492.178    -602.065
  O      -71.468     493.042    -603.198
  C      -72.676     491.659    -601.777
  O      -72.781     491.039    -600.513
  C      -73.487     492.941    -601.896
  O      -73.481     493.682    -600.669
  C      -72.738     493.710    -603.007
  N      -73.519     493.785    -604.228
  C      -73.945     495.080    -604.579
  O      -73.646     496.043    -603.876
  N      -74.734     495.224    -605.693
  C      -75.087     494.186    -606.379
  N      -75.899     494.391    -607.450
  C      -74.653     492.805    -606.046
  C      -73.879     492.686    -604.965
  O      -66.502     491.972    -602.740
  O      -67.653     491.352    -600.499
  H      -74.125     494.410    -600.772
  H      -66.441     491.769    -603.693
  H      -74.965     491.974    -606.657
  H      -73.510     491.709    -604.644
  H      -72.498     494.735    -602.682
  H      -74.539     492.734    -602.131
  H      -73.000     490.982    -602.584
  H      -70.902     492.784    -601.226
  H      -76.223     495.343    -607.619
  H      -70.143     490.419    -601.504
  H      -76.300     493.650    -608.006
  H      -70.576     490.485    -603.220
  P      -73.929     489.964    -600.204
  C      -72.614     488.297    -601.668
  O      -73.879     488.879    -601.389
  O      -75.286     490.541    -599.936
  O      -73.323     489.128    -598.968
  H      -72.472     488.683    -599.154
  H      -72.713     487.597    -602.471
  H      -72.254     487.792    -600.796
  H      -71.922     489.064    -601.947

 6  7  8  9  10  11  12  13  14  15  16  26  30  31  32  33  35 0
 6-311+G(2d,p)
 ****
 37  38 0
 6-311+G(2d,p)
 ****
 1  2  3  4  5  17  18  19  20  21  22  23  24  25 0
 3-21G
 ****
 27  28  29  34  36  39  40  41  42  43  44  45  46 0
 3-21G
 ****


