%nproc=1
%NoSave
%Mem=1900MB
#P OB98/GEN NMR

erre ene a

0 1
  C     -260.930      98.714    -468.981
  O     -259.786      99.509    -468.745
  H     -261.552      99.176    -469.752
  H     -260.606      97.730    -469.331
  H     -261.508      98.589    -468.061
  P     -260.030     100.940    -468.059
  C     -257.835     101.245    -466.699
  O     -258.571     101.586    -467.866
  C     -257.038      99.960    -466.928
  O     -256.227     100.118    -468.123
  C     -256.098      99.609    -465.771
  O     -256.100      98.192    -465.586
  C     -254.737     100.063    -466.271
  O     -253.670      99.358    -465.646
  C     -254.865      99.808    -467.770
  N     -252.081     100.030    -472.044
  C     -252.982      99.129    -471.599
  N     -253.687      99.147    -470.448
  C     -253.419     100.264    -469.748
  C     -252.525     101.271    -470.070
  C     -251.826     101.120    -471.280
  N     -250.879     102.016    -471.724
  N     -252.503     102.233    -469.078
  C     -253.367     101.815    -468.177
  N     -253.942     100.626    -468.537
  O     -260.462     100.533    -466.569
  O     -261.045     101.812    -468.716
  H     -253.655      98.446    -466.004
  H     -261.400     100.269    -466.563
  H     -253.157      98.277    -472.252
  H     -253.604     102.322    -467.252
  H     -254.667      98.759    -468.037
  H     -254.607     101.131    -466.067
  H     -256.375     100.099    -464.836
  H     -257.741      99.142    -467.130
  H     -258.532     101.099    -465.869
  H     -250.385     101.800    -472.575
  H     -250.631     102.801    -471.139
  H     -257.151     102.064    -466.454
  P     -256.932      97.630    -464.333
  C     -257.220      95.079    -464.693
  O     -256.481      96.111    -464.058
  O     -258.419      97.488    -464.908
  O     -256.892      98.528    -463.138
  H     -259.053      97.910    -464.299
  H     -256.811      94.128    -464.421
  H     -257.164      95.201    -465.754
  H     -258.243      95.129    -464.382

 6  7  8  9  10  11  12  13  14  15  25  28  32  33  34  35 0
 6-311+G(2d,p)
 ****
 36  39  40 0
 6-311+G(2d,p)
 ****
 1  2  3  4  5  16  17  18  19  20  21  22  23  24 0
 3-21G
 ****
 26  27  29  30  31  37  38  41  42  43  44  45  46  47 0
 3-21G
 ****
 48 0
 3-21G
 ****


