%nproc=1
%NoSave
%Mem=1900MB
#P OB98/GEN NMR

erre ene a

0 1
  C       15.656    -495.188     207.159
  O       16.115    -496.373     207.796
  P       15.001    -497.403     208.333
  C       14.978    -498.832     206.161
  O       14.259    -497.954     207.019
  C       14.289    -500.195     206.091
  O       14.353    -500.851     207.373
  C       12.810    -500.142     205.733
  O       12.604    -500.030     204.336
  C       12.350    -501.501     206.222
  O       12.705    -502.520     205.266
  C       13.165    -501.668     207.506
  N       10.086    -503.310     211.254
  C       10.579    -503.931     210.158
  N       11.383    -503.423     209.201
  C       11.643    -502.125     209.434
  C       11.179    -501.347     210.491
  C       10.372    -501.997     211.444
  N        9.888    -501.375     212.566
  N       11.654    -500.063     210.390
  C       12.403    -500.058     209.304
  N       12.435    -501.281     208.703
  O       13.913    -496.443     208.994
  O       15.507    -498.434     209.285
  H       12.078    -502.453     204.532
  H       13.391    -496.939     209.664
  H       10.302    -504.967     210.043
  H       12.939    -499.195     208.928
  H       13.502    -502.704     207.648
  H       11.262    -501.560     206.356
  H       12.301    -499.351     206.282
  H       14.838    -500.817     205.365
  H       15.990    -498.967     206.546
  H        9.477    -501.950     213.277
  H       10.267    -500.468     212.803
  H       15.040    -498.391     205.161
  P       11.200    -499.407     203.851
  C       11.329    -496.940     204.681
  O       10.858    -498.258     204.928
  O       10.151    -500.570     204.194
  O       11.162    -499.006     202.415
  H        9.379    -500.499     203.618
  H       10.762    -496.253     205.315
  H       11.187    -496.663     203.641
  H       12.385    -496.874     204.949
  H       16.496    -494.599     206.854
  H       15.055    -494.625     207.843
  H       15.072    -495.448     206.301

 3  4  5  6  7  8  9  10  11  12  22  25  29  30  31  32 0
 6-311+G(2d,p)
 ****
 33  36  37 0
 6-311+G(2d,p)
 ****
 1  2  13  14  15  16  17  18  19  20  21  23  24  26 0
 3-21G
 ****
 27  28  34  35  38  39  40  41  42  43  44  45  46  47  48 0
 3-21G
 ****


