%nproc=1
%NoSave
%Mem=1900MB
#P OB98/GEN NMR

erre ene a

0 1
  C      122.331      72.188      94.917
  O      121.190      71.534      95.450
  P      119.914      71.322      94.501
  C      118.792      73.456      95.554
  O      119.183      72.748      94.388
  C      117.308      73.835      95.474
  O      116.981      74.692      96.603
  C      116.914      74.594      94.194
  O      115.584      74.179      93.849
  C      116.922      76.044      94.646
  O      116.134      76.881      93.816
  C      116.389      75.900      96.078
  N      116.712      77.042      96.937
  C      115.682      77.919      97.272
  O      114.520      77.799      96.867
  N      116.036      78.976      98.073
  C      117.290      79.271      98.512
  O      117.550      80.239      99.214
  C      118.346      78.339      98.092
  C      118.016      77.279      97.343
  O      118.957      70.463      95.454
  O      120.240      70.686      93.193
  H      119.024      70.723      96.388
  H      116.160      77.782      94.183
  H      115.293      79.601      98.358
  H      119.364      78.551      98.404
  H      118.777      76.579      97.021
  H      115.305      75.747      96.064
  H      117.950      76.422      94.636
  H      117.598      74.393      93.360
  H      116.712      72.919      95.575
  H      119.390      74.363      95.642
  H      118.986      72.832      96.436
  P      115.251      73.922      92.294
  C      114.144      76.255      91.841
  O      115.193      75.354      91.573
  O      113.697      73.516      92.404
  O      116.080      72.867      91.636
  H      113.185      74.134      92.952
  H      114.454      77.262      91.535
  H      113.900      76.278      92.908
  H      113.257      75.973      91.267
  H      123.090      72.251      95.669
  H      122.061      73.173      94.599
  H      122.702      71.633      94.081

 3  4  5  6  7  8  9  10  11  12  13  24  28  29  30  31  32 0
 6-311+G(2d,p)
 ****
 33  34 0
 6-311+G(2d,p)
 ****
 1  2  14  15  16  17  18  19  20  21  22  23  25  26  27 0
 3-21G
 ****
 35  36  37  38  39  40  41  42  43  44  45 0
 3-21G
 ****


