%nproc=1
%NoSave
%Mem=1900MB
#P OB98/GEN NMR

erre ene a

0 1
  C      -36.970     -27.484     -37.281
  O      -35.796     -27.368     -38.070
  P      -35.974     -27.017     -39.627
  C      -37.081     -28.250     -41.639
  O      -36.531     -28.349     -40.330
  C      -37.342     -29.638     -42.207
  O      -36.107     -30.365     -42.378
  C      -38.207     -30.525     -41.319
  O      -39.592     -30.243     -41.460
  C      -37.886     -31.902     -41.879
  O      -38.645     -32.133     -43.080
  C      -36.392     -31.774     -42.207
  N      -33.666     -35.791     -40.766
  C      -34.247     -35.506     -41.987
  N      -34.136     -36.459     -42.941
  N      -34.877     -34.392     -42.251
  C      -34.918     -33.538     -41.200
  C      -34.380     -33.703     -39.944
  C      -33.694     -34.947     -39.661
  O      -33.205     -35.276     -38.586
  N      -34.617     -32.613     -39.152
  C      -35.297     -31.788     -39.921
  N      -35.544     -32.319     -41.160
  O      -34.467     -26.927     -40.159
  O      -36.741     -25.770     -39.903
  H      -39.584     -32.205     -42.810
  H      -34.442     -26.457     -41.017
  H      -33.197     -36.666     -40.609
  H      -35.645     -30.803     -39.620
  H      -36.137     -32.277     -43.146
  H      -38.132     -32.711     -41.185
  H      -33.717     -37.364     -42.777
  H      -37.884     -30.472     -40.270
  H      -34.607     -36.309     -43.822
  H      -37.803     -29.517     -43.197
  H      -36.378     -27.714     -42.282
  H      -38.012     -27.673     -41.595
  P      -40.499     -30.408     -40.144
  C      -41.080     -32.473     -38.677
  O      -40.669     -31.989     -39.943
  O      -41.941     -29.921     -40.641
  O      -40.018     -29.639     -38.960
  H      -42.464     -29.586     -39.887
  H      -41.399     -33.514     -38.787
  H      -41.915     -31.892     -38.282
  H      -40.242     -32.437     -37.978
  H      -36.700     -27.719     -36.273
  H      -37.589     -28.263     -37.675
  H      -37.506     -26.558     -37.300

 3  4  5  6  7  8  9  10  11  12  23  26  30  31 0
 6-311+G(2d,p)
 ****
 33  35  36  37  38 0
 6-311+G(2d,p)
 ****
 1  2  13  14  15  16  17  18  19  20  21  22  24  25 0
 3-21G
 ****
 27  28  29  32  34  39  40  41  42  43  44  45  46  47  48  49 0
 3-21G
 ****


