%nproc=1
%NoSave
%Mem=1900MB
#P OB98/GEN NMR

erre ene a

0 1
  C      -99.081     500.975     378.352
  O      -98.280     501.148     377.192
  P      -96.684     501.188     377.384
  C      -96.869     502.820     375.366
  O      -96.184     502.478     376.576
  C      -96.554     504.255     374.960
  O      -97.139     505.180     375.891
  C      -95.066     504.589     374.921
  O      -94.446     504.165     373.721
  C      -95.114     506.109     374.986
  O      -95.425     506.643     373.688
  C      -96.278     506.354     375.952
  N      -94.750     509.863     379.338
  C      -95.031     509.952     378.027
  N      -95.425     508.966     377.187
  C      -95.474     507.785     377.831
  C      -95.173     507.535     379.160
  C      -94.815     508.646     379.943
  N      -94.543     508.567     381.293
  N      -95.337     506.202     379.464
  C      -95.744     505.652     378.333
  N      -95.848     506.570     377.321
  O      -96.183     499.967     376.484
  O      -96.217     501.075     378.795
  H      -96.141     506.092     373.314
  H      -95.305     499.656     376.792
  H      -94.935     510.939     377.585
  H      -95.975     504.602     378.199
  H      -96.891     507.216     375.657
  H      -94.160     506.553     375.294
  H      -94.550     504.202     375.813
  H      -97.010     504.432     373.974
  H      -97.948     502.725     375.532
  H      -94.472     509.426     381.810
  H      -94.793     507.707     381.771
  H      -96.571     502.121     374.580
  P      -92.885     503.777     373.800
  C      -92.676     504.617     371.354
  O      -92.173     504.659     372.681
  O      -92.849     502.285     373.218
  O      -92.310     503.859     375.181
  H      -92.085     501.799     373.574
  H      -92.293     505.482     370.802
  H      -93.772     504.655     371.347
  H      -92.346     503.706     370.857
  H     -100.114     500.968     378.074
  H      -98.901     501.780     379.033
  H      -98.832     500.047     378.822

 3  4  5  6  7  8  9  10  11  12  22  25  29  30  31  32 0
 6-311+G(2d,p)
 ****
 33  36  37 0
 6-311+G(2d,p)
 ****
 1  2  13  14  15  16  17  18  19  20  21  23  24  26 0
 3-21G
 ****
 27  28  34  35  38  39  40  41  42  43  44  45  46  47  48 0
 3-21G
 ****


