%nproc=1
%NoSave
%Mem=1900MB
#P OB98/GEN NMR

erre ene a

0 1
  C      292.321    -680.058      -8.376
  O      291.698    -679.153      -9.258
  H      293.329    -680.270      -8.740
  H      291.759    -680.993      -8.337
  H      292.397    -679.627      -7.368
  P      290.279    -678.554      -8.801
  C      288.133    -679.680      -7.865
  O      289.264    -679.794      -8.723
  C      286.853    -680.015      -8.626
  O      287.016    -681.258      -9.349
  C      285.624    -680.187      -7.737
  O      285.033    -678.942      -7.400
  C      284.726    -681.000      -8.659
  O      284.147    -680.131      -9.653
  C      285.729    -681.950      -9.322
  N      284.505    -686.878      -9.272
  C      284.126    -685.875     -10.151
  N      283.297    -686.229     -11.153
  N      284.525    -684.626     -10.047
  C      285.347    -684.412      -8.991
  C      285.785    -685.326      -8.054
  C      285.346    -686.695      -8.181
  O      285.664    -687.627      -7.447
  N      286.620    -684.738      -7.140
  C      286.655    -683.470      -7.500
  N      285.895    -683.218      -8.613
  O      289.784    -677.744     -10.094
  O      290.322    -677.680      -7.591
  H      283.593    -679.490      -9.174
  H      289.307    -676.949      -9.796
  H      284.154    -687.811      -9.389
  H      287.224    -682.696      -6.994
  H      285.465    -682.194     -10.353
  H      283.908    -681.480      -8.130
  H      282.916    -687.156     -11.253
  H      285.858    -680.777      -6.844
  H      283.032    -685.513     -11.830
  H      286.688    -679.228      -9.366
  H      288.075    -678.653      -7.484
  H      288.266    -680.364      -7.023
  P      284.225    -678.852      -6.015
  C      282.270    -680.230      -4.993
  O      282.996    -679.868      -6.170
  O      283.528    -677.415      -6.101
  O      285.053    -679.005      -4.785
  H      283.315    -677.090      -5.199
  H      281.485    -680.909      -5.253
  H      281.850    -679.352      -4.549
  H      282.932    -680.700      -4.296

 6  7  8  9  10  11  12  13  14  15  26  29  33  34 0
 6-311+G(2d,p)
 ****
 36  38  39  40  41 0
 6-311+G(2d,p)
 ****
 1  2  3  4  5  16  17  18  19  20  21  22  23  24  25 0
 3-21G
 ****
 27  28  30  31  32  35  37  42  43  44  45  46  47 0
 3-21G
 ****
 48  49 0
 3-21G
 ****


