%nproc=1
%NoSave
%Mem=1900MB
#P OB98/GEN NMR

erre ene a

0 1
  C       13.031     -69.244     203.058
  O       13.642     -68.964     201.816
  H       13.282     -70.268     203.347
  H       11.945     -69.162     202.972
  H       13.395     -68.563     203.832
  P       13.545     -67.479     201.222
  C       12.222     -67.898     199.051
  O       13.493     -67.619     199.627
  C       12.397     -68.732     197.785
  O       12.915     -67.914     196.714
  C       13.379     -69.888     197.938
  O       12.798     -70.950     198.665
  C       13.681     -70.189     196.478
  O       12.629     -70.964     195.882
  C       13.719     -68.767     195.869
  N       15.080     -68.245     195.732
  C       15.988     -69.065     195.071
  O       15.696     -70.172     194.624
  N       17.268     -68.587     194.984
  C       17.731     -67.440     195.559
  O       18.923     -67.160     195.645
  C       16.713     -66.578     196.177
  C       15.456     -67.021     196.248
  O       14.553     -66.507     201.738
  O       12.053     -67.025     201.589
  H       12.078     -66.443     202.372
  H       12.595     -71.807     196.375
  H       17.947     -69.195     194.549
  H       17.029     -65.628     196.588
  H       14.693     -66.416     196.727
  H       13.252     -68.763     194.876
  H       14.605     -70.757     196.353
  H       14.297     -69.539     198.424
  H       11.410     -69.101     197.480
  H       11.740     -66.949     198.799
  H       11.606     -68.428     199.784
  P       13.694     -71.936     199.551
  C       13.556     -73.834     197.837
  O       13.296     -73.442     199.177
  O       13.700     -71.642     201.015
  O       15.168     -71.789     198.935
  H       15.793     -71.574     199.652
  H       13.254     -74.851     197.698
  H       14.603     -73.742     197.635
  H       13.007     -73.204     197.168

 6  7  8  9  10  11  12  13  14  15  16  27  31  32  33  34  35 0
 6-311+G(2d,p)
 ****
 36  37 0
 6-311+G(2d,p)
 ****
 1  2  3  4  5  17  18  19  20  21  22  23  24  25 0
 3-21G
 ****
 26  28  29  30  38  39  40  41  42  43  44  45 0
 3-21G
 ****


