%nproc=1
%NoSave
%Mem=1900MB
#P OB98/GEN NMR

erre ene a

0 1
  C      267.790      24.860     431.600
  O      266.899      25.837     431.073
  P      265.714      25.414     430.068
  C      266.093      26.484     427.762
  O      266.395      25.387     428.611
  C      266.765      27.753     428.292
  O      268.196      27.528     428.358
  C      266.605      29.008     427.426
  O      265.390      29.728     427.640
  C      267.778      29.847     427.917
  O      267.444      30.463     429.167
  C      268.875      28.793     428.119
  N      272.749      30.932     425.549
  C      272.114      31.280     426.693
  N      271.069      30.670     427.303
  C      270.723      29.557     426.635
  C      271.279      29.060     425.459
  C      272.341      29.802     424.915
  N      272.997      29.434     423.765
  N      270.638      27.901     425.066
  C      269.727      27.700     425.997
  N      269.745      28.658     426.971
  O      264.481      26.237     430.189
  O      265.465      23.864     430.379
  H      266.640      31.005     429.016
  H      264.602      23.584     430.015
  H      272.487      32.186     427.175
  H      269.033      26.864     426.008
  H      269.495      28.996     428.994
  H      268.050      30.656     427.224
  H      266.743      28.773     426.365
  H      266.397      27.937     429.312
  H      265.010      26.634     427.748
  H      273.827      29.944     423.507
  H      272.807      28.510     423.374
  H      266.427      26.260     426.742
  P      264.815      30.580     426.403
  C      265.180      33.169     426.504
  O      265.737      31.887     426.311
  O      263.348      30.828     426.455
  O      265.272      29.711     425.133
  H      266.233      29.681     424.972
  H      265.996      33.905     426.553
  H      264.610      33.210     427.431
  H      264.535      33.427     425.653
  H      268.501      25.336     432.242
  H      268.304      24.375     430.796
  H      267.235      24.135     432.158

 3  4  5  6  7  8  9  10  11  12  22  25  29  30  31  32 0
 6-311+G(2d,p)
 ****
 33  36  37 0
 6-311+G(2d,p)
 ****
 1  2  13  14  15  16  17  18  19  20  21  23  24  26 0
 3-21G
 ****
 27  28  34  35  38  39  40  41  42  43  44  45  46  47  48 0
 3-21G
 ****


