%nproc=1
%NoSave
%Mem=1900MB
#P OB98/GEN NMR

erre ene a

0 1
  C       93.504    -107.505    -455.675
  O       93.813    -106.189    -456.080
  H       92.755    -107.916    -456.355
  H       93.089    -107.485    -454.665
  H       94.393    -108.144    -455.700
  P       95.154    -105.534    -455.492
  C       96.809    -106.819    -457.024
  O       96.240    -105.566    -456.675
  C       97.721    -106.672    -458.244
  O       98.526    -107.884    -458.370
  C       96.966    -106.469    -459.569
  O       97.716    -105.568    -460.393
  C       97.024    -107.846    -460.205
  O       96.876    -107.800    -461.618
  C       98.402    -108.314    -459.739
  N       98.361    -112.037    -463.108
  C       98.381    -110.666    -463.284
  N       98.324    -110.208    -464.552
  N       98.452    -109.813    -462.293
  C       98.527    -110.403    -461.076
  C       98.508    -111.744    -460.771
  C       98.415    -112.677    -461.873
  O       98.373    -113.901    -461.779
  N       98.541    -111.936    -459.413
  C       98.553    -110.715    -458.901
  N       98.544    -109.753    -459.874
  O       95.673    -106.657    -454.473
  O       94.980    -104.214    -454.818
  H       97.043    -108.699    -461.971
  H       95.358    -106.457    -453.573
  H       98.291    -112.649    -463.899
  H       98.548    -110.477    -457.847
  H       99.217    -107.857    -460.319
  H       96.233    -108.483    -459.791
  H       98.298    -110.804    -465.365
  H       95.946    -106.096    -459.447
  H       98.375    -109.208    -464.697
  H       98.418    -105.844    -458.062
  H       96.006    -107.524    -457.260
  H       97.375    -107.208    -456.170
  P       97.314    -104.011    -460.370
  C       98.393    -103.048    -458.211
  O       98.470    -103.192    -459.621
  O       96.097    -103.973    -459.331
  O       96.907    -103.474    -461.702
  H       95.451    -103.296    -459.600
  H       99.231    -102.481    -457.864
  H       98.402    -104.015    -457.753
  H       97.487    -102.540    -457.953

 6  7  8  9  10  11  12  13  14  15  26  29  33  34 0
 6-311+G(2d,p)
 ****
 36  38  39  40  41 0
 6-311+G(2d,p)
 ****
 1  2  3  4  5  16  17  18  19  20  21  22  23  24  25 0
 3-21G
 ****
 27  28  30  31  32  35  37  42  43  44  45  46  47 0
 3-21G
 ****
 48  49 0
 3-21G
 ****


