%nproc=1
%NoSave
%Mem=1900MB
#P OB98/GEN NMR

erre ene a

0 1
  C      509.965     134.619    -213.790
  O      509.613     133.507    -212.992
  H      510.956     134.962    -213.491
  H      509.249     135.430    -213.640
  H      509.994     134.332    -214.846
  P      508.188     132.814    -213.281
  C      509.116     130.500    -212.531
  O      508.148     131.524    -212.322
  C      508.999     129.429    -211.443
  O      509.527     129.955    -210.202
  C      507.561     128.970    -211.187
  O      507.538     127.549    -211.038
  C      507.176     129.652    -209.882
  O      506.170     128.940    -209.180
  C      508.535     129.752    -209.174
  N      508.558     130.849    -208.193
  C      508.300     130.501    -206.867
  O      508.057     129.331    -206.556
  N      508.271     131.496    -205.921
  C      508.421     132.736    -206.275
  N      508.356     133.680    -205.293
  C      508.643     133.151    -207.676
  C      508.702     132.163    -208.575
  O      508.384     132.195    -214.744
  O      507.005     133.718    -213.160
  H      506.482     128.020    -209.042
  H      507.522     131.919    -215.138
  H      508.752     134.196    -207.932
  H      508.867     132.375    -209.627
  H      508.770     128.818    -208.653
  H      506.794     130.657    -210.102
  H      506.878     129.255    -211.982
  H      509.640     128.583    -211.719
  H      508.189     133.357    -204.354
  H      510.115     130.948    -212.508
  H      508.434     134.670    -205.465
  H      508.947     130.040    -213.507
  P      506.316     126.790    -211.763
  C      507.821     124.799    -212.456
  O      506.652     125.217    -211.769
  O      506.459     127.222    -213.296
  O      504.970     127.141    -211.196
  H      505.843     127.946    -213.509
  H      507.919     123.736    -212.378
  H      508.678     125.269    -212.021
  H      507.747     125.076    -213.487

 6  7  8  9  10  11  12  13  14  15  16  26  30  31  32  33  35 0
 6-311+G(2d,p)
 ****
 37  38 0
 6-311+G(2d,p)
 ****
 1  2  3  4  5  17  18  19  20  21  22  23  24  25 0
 3-21G
 ****
 27  28  29  34  36  39  40  41  42  43  44  45  46 0
 3-21G
 ****


