%nproc=1
%NoSave
%Mem=1900MB
#P OB98/GEN NMR

erre ene a

0 1
  C     -457.153     265.708    -583.175
  O     -456.369     266.504    -584.044
  H     -456.581     264.824    -582.898
  H     -458.071     265.388    -583.672
  H     -457.401     266.267    -582.265
  P     -456.998     267.872    -584.604
  C     -457.785     267.671    -587.055
  O     -458.094     267.432    -585.685
  C     -456.859     266.580    -587.580
  O     -457.469     265.285    -587.400
  C     -456.530     266.703    -589.070
  O     -455.499     267.655    -589.270
  C     -456.101     265.278    -589.378
  O     -454.764     265.059    -588.883
  C     -457.119     264.463    -588.551
  N     -459.161     261.572    -592.183
  C     -457.846     261.690    -591.779
  N     -456.938     260.961    -592.465
  N     -457.452     262.460    -590.802
  C     -458.454     263.180    -590.247
  C     -459.793     263.167    -590.573
  C     -460.225     262.262    -591.620
  O     -461.386     262.113    -592.000
  N     -460.504     264.086    -589.841
  C     -459.601     264.624    -589.042
  N     -458.337     264.126    -589.268
  O     -456.025     268.894    -585.104
  O     -457.881     268.417    -583.381
  H     -454.187     265.686    -589.347
  H     -457.369     269.032    -582.827
  H     -459.400     260.967    -592.956
  H     -459.809     265.384    -588.297
  H     -456.690     263.526    -588.167
  H     -456.093     265.047    -590.437
  H     -457.141     260.585    -593.383
  H     -457.425     266.931    -589.661
  H     -455.966     261.068    -592.216
  H     -455.943     266.584    -586.970
  H     -457.291     268.650    -587.113
  H     -458.696     267.703    -587.658
  P     -455.401     268.495    -590.640
  C     -453.277     268.064    -592.057
  O     -454.543     267.567    -591.624
  O     -454.885     269.886    -590.483
  O     -456.869     268.410    -591.264
  H     -457.468     269.137    -590.960
  H     -452.815     267.348    -592.705
  H     -452.650     268.232    -591.206
  H     -453.417     268.984    -592.585

 6  7  8  9  10  11  12  13  14  15  26  29  33  34 0
 6-311+G(2d,p)
 ****
 36  38  39  40  41 0
 6-311+G(2d,p)
 ****
 1  2  3  4  5  16  17  18  19  20  21  22  23  24  25 0
 3-21G
 ****
 27  28  30  31  32  35  37  42  43  44  45  46  47 0
 3-21G
 ****
 48  49 0
 3-21G
 ****


