%nproc=1
%NoSave
%Mem=1900MB
#P OB98/GEN NMR

erre ene a

0 1
  C      963.759    -949.963    -145.389
  O      964.853    -949.794    -146.298
  P      966.294    -949.445    -145.691
  C      966.786    -946.964    -146.327
  O      966.990    -948.332    -146.627
  C      966.732    -946.137    -147.612
  O      965.486    -946.307    -148.319
  C      966.876    -944.639    -147.388
  O      968.235    -944.251    -147.237
  C      966.313    -944.087    -148.692
  O      967.314    -944.163    -149.719
  C      965.162    -945.064    -148.988
  N      961.291    -941.848    -149.916
  C      962.464    -942.045    -150.544
  N      963.457    -942.901    -150.229
  C      963.128    -943.625    -149.141
  C      961.971    -943.535    -148.396
  C      961.016    -942.599    -148.814
  N      959.811    -942.406    -148.170
  N      961.977    -944.436    -147.351
  C      963.135    -945.068    -147.459
  N      963.864    -944.606    -148.531
  O      967.135    -950.763    -145.986
  O      966.272    -949.123    -144.229
  H      966.854    -944.000    -150.576
  H      967.780    -950.913    -145.266
  H      962.647    -941.416    -151.419
  H      963.487    -945.850    -146.813
  H      965.078    -945.294    -150.058
  H      966.010    -943.043    -148.619
  H      966.242    -944.313    -146.540
  H      967.553    -946.487    -148.268
  H      967.586    -946.600    -145.686
  H      959.160    -941.731    -148.553
  H      959.592    -942.979    -147.367
  H      965.857    -946.861    -145.763
  P      968.513    -942.845    -146.505
  C      970.449    -941.911    -147.970
  O      970.056    -942.532    -146.765
  O      968.452    -943.235    -144.953
  O      967.547    -941.758    -146.857
  H      968.137    -942.465    -144.433
  H      971.459    -941.505    -147.852
  H      969.760    -941.094    -148.222
  H      970.460    -942.646    -148.786
  H      962.870    -950.191    -145.939
  H      963.614    -949.060    -144.834
  H      963.976    -950.765    -144.715

 3  4  5  6  7  8  9  10  11  12  22  25  29  30  31  32 0
 6-311+G(2d,p)
 ****
 33  36  37 0
 6-311+G(2d,p)
 ****
 1  2  13  14  15  16  17  18  19  20  21  23  24  26 0
 3-21G
 ****
 27  28  34  35  38  39  40  41  42  43  44  45  46  47  48 0
 3-21G
 ****


