%nproc=1
%NoSave
%Mem=1900MB
#P OB98/GEN NMR

erre ene a

0 1
  C       73.651     -71.726      33.501
  O       74.309     -70.622      34.101
  P       74.198     -69.157      33.459
  C       76.437     -69.692      32.314
  O       75.127     -69.161      32.150
  C       77.188     -69.696      30.984
  O       76.565     -70.658      30.099
  C       77.174     -68.345      30.276
  O       78.426     -68.157      29.612
  C       76.090     -68.486      29.219
  O       76.323     -67.598      28.112
  C       76.187     -69.978      28.886
  N       73.794     -72.430      25.060
  C       75.083     -72.065      25.225
  N       75.646     -71.393      26.253
  C       74.734     -71.146      27.208
  C       73.383     -71.462      27.185
  C       72.912     -72.133      26.044
  N       71.597     -72.517      25.884
  N       72.757     -71.018      28.335
  C       73.717     -70.466      29.044
  N       74.931     -70.527      28.413
  O       74.460     -68.034      34.402
  O       72.720     -69.094      32.855
  H       77.202     -67.822      27.745
  H       72.337     -68.205      32.987
  H       75.757     -72.346      24.418
  H       73.586     -70.001      30.010
  H       76.959     -70.174      28.131
  H       75.117     -68.233      29.655
  H       76.983     -67.509      30.957
  H       78.217     -70.030      31.163
  H       76.348     -70.721      32.679
  H       71.377     -73.100      25.092
  H       70.982     -72.452      26.685
  H       76.977     -69.104      33.063
  P       79.003     -66.652      29.609
  C       78.208     -66.247      27.164
  O       78.118     -65.880      28.522
  O       80.486     -66.623      29.431
  O       78.488     -66.121      31.030
  H       77.691     -66.612      31.331
  H       77.565     -65.584      26.578
  H       77.862     -67.275      27.026
  H       79.237     -66.148      26.806
  H       73.844     -72.610      34.072
  H       74.015     -71.859      32.504
  H       72.597     -71.542      33.474

 3  4  5  6  7  8  9  10  11  12  22  25  29  30  31  32 0
 6-311+G(2d,p)
 ****
 33  36  37 0
 6-311+G(2d,p)
 ****
 1  2  13  14  15  16  17  18  19  20  21  23  24  26 0
 3-21G
 ****
 27  28  34  35  38  39  40  41  42  43  44  45  46  47  48 0
 3-21G
 ****


