%nproc=1
%NoSave
%Mem=1900MB
#P OB98/GEN NMR

erre ene a

0 1
  C     -406.291     -66.447     129.301
  O     -405.833     -65.348     130.060
  H     -407.332     -66.670     129.551
  H     -406.232     -66.190     128.240
  H     -405.664     -67.324     129.488
  P     -405.828     -65.521     131.658
  C     -407.288     -63.461     132.283
  O     -407.208     -64.876     132.169
  C     -407.819     -63.087     133.662
  O     -409.153     -63.607     133.839
  C     -407.005     -63.644     134.822
  O     -405.854     -62.860     135.095
  C     -408.018     -63.545     135.950
  O     -408.110     -62.180     136.405
  C     -409.312     -63.959     135.242
  N     -411.435     -67.600     138.146
  C     -411.294     -66.269     138.330
  N     -410.711     -65.372     137.510
  C     -410.249     -65.966     136.398
  C     -410.318     -67.312     136.076
  C     -410.957     -68.152     137.008
  N     -411.092     -69.510     136.831
  N     -409.702     -67.559     134.862
  C     -409.301     -66.371     134.450
  N     -409.600     -65.380     135.346
  O     -404.731     -64.463     132.148
  O     -405.558     -66.900     132.160
  H     -407.248     -61.958     136.801
  H     -404.413     -64.698     133.039
  H     -411.694     -65.878     139.262
  H     -408.792     -66.183     133.510
  H     -410.188     -63.422     135.621
  H     -407.754     -64.153     136.820
  H     -406.745     -64.699     134.664
  H     -407.878     -61.992     133.721
  H     -407.968     -63.077     131.516
  H     -411.394     -70.042     137.634
  H     -410.606     -69.947     136.060
  H     -406.294     -63.031     132.129
  P     -404.549     -63.630     135.632
  C     -405.150     -63.389     138.153
  O     -404.965     -64.265     137.042
  O     -403.564     -62.435     136.036
  O     -403.928     -64.571     134.652
  H     -402.631     -62.722     135.982
  H     -405.423     -63.960     139.016
  H     -405.926     -62.688     137.929
  H     -404.239     -62.863     138.348

 6  7  8  9  10  11  12  13  14  15  25  28  32  33  34  35 0
 6-311+G(2d,p)
 ****
 36  39  40 0
 6-311+G(2d,p)
 ****
 1  2  3  4  5  16  17  18  19  20  21  22  23  24 0
 3-21G
 ****
 26  27  29  30  31  37  38  41  42  43  44  45  46  47 0
 3-21G
 ****
 48 0
 3-21G
 ****


