%nproc=1
%NoSave
%Mem=1900MB
#P OB98/GEN NMR

erre ene a

0 1
  C     -597.840    -758.975     157.686
  O     -598.273    -759.471     158.940
  H     -597.720    -759.814     156.994
  H     -596.881    -758.472     157.796
  H     -598.586    -758.280     157.269
  P     -598.706    -758.388     160.035
  C     -596.939    -759.335     161.675
  O     -597.451    -758.189     161.014
  C     -595.791    -758.935     162.613
  O     -594.689    -758.395     161.845
  C     -596.165    -757.866     163.640
  O     -596.830    -758.419     164.767
  C     -594.797    -757.327     163.995
  O     -594.135    -758.248     164.898
  C     -594.083    -757.317     162.629
  N     -591.635    -753.203     160.988
  C     -591.163    -754.275     161.715
  N     -589.871    -754.245     162.068
  N     -591.921    -755.294     162.075
  C     -593.195    -755.176     161.659
  C     -593.780    -754.166     160.925
  C     -592.951    -753.060     160.516
  O     -593.308    -752.095     159.859
  N     -595.110    -754.417     160.691
  C     -595.332    -755.569     161.303
  N     -594.212    -756.071     161.921
  O     -599.754    -759.188     160.949
  O     -599.312    -757.133     159.488
  H     -593.237    -757.907     165.021
  H     -600.460    -758.577     161.233
  H     -591.037    -752.431     160.729
  H     -596.286    -756.072     161.317
  H     -593.009    -757.539     162.723
  H     -594.828    -756.359     164.506
  H     -589.267    -753.461     161.871
  H     -596.756    -757.066     163.170
  H     -589.503    -755.016     162.589
  H     -595.438    -759.836     163.119
  H     -596.554    -760.043     160.939
  H     -597.746    -759.812     162.241
  P     -597.432    -757.404     165.851
  C     -596.050    -758.510     167.758
  O     -596.340    -757.310     167.023
  O     -598.630    -758.241     166.513
  O     -597.912    -756.092     165.300
  H     -599.285    -757.643     166.890
  H     -595.310    -758.302     168.502
  H     -595.682    -759.258     167.088
  H     -596.942    -758.863     168.231

 6  7  8  9  10  11  12  13  14  15  26  29  33  34 0
 6-311+G(2d,p)
 ****
 36  38  39  40  41 0
 6-311+G(2d,p)
 ****
 1  2  3  4  5  16  17  18  19  20  21  22  23  24  25 0
 3-21G
 ****
 27  28  30  31  32  35  37  42  43  44  45  46  47 0
 3-21G
 ****
 48  49 0
 3-21G
 ****


