%nproc=1
%NoSave
%Mem=1900MB
#P OB98/GEN NMR

erre ene a

0 1
  C       29.291     561.205     565.387
  O       29.907     560.052     565.968
  P       29.568     559.644     567.472
  C       32.043     559.550     568.210
  O       30.809     558.858     568.107
  C       32.984     558.817     569.167
  O       32.414     558.702     570.491
  C       33.259     557.376     568.739
  O       34.036     557.198     567.574
  C       33.770     556.750     570.023
  O       35.153     557.005     570.222
  C       32.922     557.484     571.089
  N       31.831     556.657     571.618
  C       32.092     556.019     572.820
  O       33.169     556.081     573.412
  N       31.058     555.254     573.315
  C       29.848     555.055     572.726
  O       28.974     554.344     573.199
  C       29.650     555.746     571.442
  C       30.633     556.501     570.949
  O       28.227     559.014     567.692
  O       29.634     561.062     568.241
  H       35.425     556.518     571.023
  H       28.901     561.086     568.882
  H       31.224     554.790     574.195
  H       28.702     555.603     570.938
  H       30.513     557.019     570.005
  H       33.551     557.794     571.932
  H       33.642     555.662     570.014
  H       32.288     556.911     568.519
  H       33.917     559.386     569.254
  H       31.867     560.577     568.571
  H       32.486     559.657     567.207
  P       33.411     556.871     566.133
  C       33.270     554.371     566.800
  O       33.641     555.319     565.823
  O       33.692     557.840     565.029
  O       31.835     556.910     566.459
  H       31.364     557.251     565.672
  H       33.505     553.376     566.432
  H       32.190     554.422     566.995
  H       33.825     554.542     567.728
  H       29.634     561.323     564.380
  H       29.550     562.073     565.957
  H       28.228     561.081     565.389

 3  4  5  6  7  8  9  10  11  12  13  23  28  29  30  31  32 0
 6-311+G(2d,p)
 ****
 33  34 0
 6-311+G(2d,p)
 ****
 1  2  14  15  16  17  18  19  20  21  22  24  25  26  27 0
 3-21G
 ****
 35  36  37  38  39  40  41  42  43  44  45 0
 3-21G
 ****


