%nproc=1
%NoSave
%Mem=1900MB
#P OB98/GEN NMR

erre ene a

0 1
  C      162.000    -425.143     -17.484
  O      160.665    -424.841     -17.049
  P      159.718    -423.780     -17.802
  C      159.868    -421.895     -16.046
  O      160.146    -422.287     -17.384
  C      160.532    -420.555     -15.695
  O      160.042    -420.079     -14.403
  C      162.063    -420.605     -15.621
  O      162.541    -419.374     -16.182
  C      162.300    -420.669     -14.117
  O      163.622    -420.302     -13.728
  C      161.206    -419.701     -13.641
  N      160.928    -419.735     -12.205
  C      160.408    -418.579     -11.614
  O      160.247    -417.549     -12.257
  N      160.094    -418.616     -10.269
  C      160.287    -419.702      -9.588
  N      159.943    -419.674      -8.264
  C      160.844    -420.936     -10.170
  C      161.134    -420.885     -11.465
  O      158.255    -424.052     -17.615
  O      160.112    -423.874     -19.350
  H      159.311    -423.748     -19.894
  H      164.218    -421.031     -13.958
  H      160.979    -421.821      -9.568
  H      161.520    -421.762     -11.981
  H      161.474    -418.674     -13.934
  H      162.127    -421.691     -13.772
  H      162.504    -421.437     -16.177
  H      160.208    -419.810     -16.441
  H      159.555    -418.809      -7.904
  H      160.254    -422.666     -15.371
  H      160.040    -420.465      -7.645
  H      158.784    -421.839     -15.905
  P      162.853    -419.277     -17.750
  C      165.238    -420.338     -17.817
  O      163.866    -420.471     -18.124
  O      163.825    -418.000     -17.820
  O      161.672    -419.084     -18.644
  H      163.756    -417.599     -18.700
  H      165.601    -421.275     -17.386
  H      165.437    -419.519     -17.116
  H      165.785    -420.148     -18.750
  H      162.431    -425.873     -16.831
  H      162.592    -424.252     -17.463
  H      161.971    -425.529     -18.482

 3  4  5  6  7  8  9  10  11  12  13  24  27  28  29  30  32 0
 6-311+G(2d,p)
 ****
 34  35 0
 6-311+G(2d,p)
 ****
 1  2  14  15  16  17  18  19  20  21  22  23  25  26 0
 3-21G
 ****
 31  33  36  37  38  39  40  41  42  43  44  45  46 0
 3-21G
 ****


