%nproc=1
%NoSave
%Mem=1900MB
#P OB98/GEN NMR

erre ene a

0 1
  C     -992.883    -433.165    -647.115
  O     -991.625    -432.592    -647.467
  P     -991.253    -431.168    -646.860
  C     -988.663    -431.612    -647.185
  O     -989.794    -430.793    -647.455
  C     -987.469    -431.165    -648.015
  O     -987.651    -431.628    -649.407
  C     -987.273    -429.634    -648.102
  O     -985.843    -429.391    -648.137
  C     -987.914    -429.262    -649.425
  O     -987.430    -428.045    -649.944
  C     -987.523    -430.517    -650.276
  N     -988.382    -430.670    -651.453
  C     -988.017    -430.006    -652.622
  O     -987.034    -429.263    -652.702
  N     -988.844    -430.192    -653.701
  C     -990.024    -430.915    -653.703
  O     -990.723    -431.030    -654.704
  C     -990.371    -431.554    -652.436
  C     -989.545    -431.420    -651.392
  O     -990.959    -431.524    -645.336
  O     -992.290    -430.113    -647.081
  H     -990.547    -432.404    -645.232
  H     -987.797    -427.911    -650.825
  H     -988.580    -429.747    -654.561
  H     -991.294    -432.110    -652.393
  H     -989.803    -431.886    -650.432
  H     -986.479    -430.446    -650.589
  H     -988.994    -429.206    -649.289
  H     -987.727    -429.126    -647.228
  H     -986.567    -431.664    -647.631
  H     -988.912    -432.650    -647.421
  H     -988.431    -431.571    -646.106
  P     -985.304    -427.980    -647.566
  C     -982.931    -428.792    -646.812
  O     -983.724    -428.008    -647.702
  O     -985.533    -428.197    -645.989
  O     -986.015    -426.780    -648.088
  H     -985.201    -429.057    -645.677
  H     -981.918    -428.935    -647.276
  H     -983.379    -429.780    -646.647
  H     -982.805    -428.266    -645.862
  H     -992.989    -434.115    -647.596
  H     -993.672    -432.515    -647.431
  H     -992.931    -433.295    -646.054

 3  4  5  6  7  8  9  10  11  12  13  24  28  29  30  31  32 0
 6-311+G(2d,p)
 ****
 33  34 0
 6-311+G(2d,p)
 ****
 1  2  14  15  16  17  18  19  20  21  22  23  25  26  27 0
 3-21G
 ****
 35  36  37  38  39  40  41  42  43  44  45 0
 3-21G
 ****


