%nproc=1
%NoSave
%Mem=1900MB
#P OB98/GEN NMR

erre ene a

0 1
  C      141.608     -34.269    -670.741
  O      142.331     -34.875    -671.792
  H      140.534     -34.383    -670.903
  H      141.880     -34.752    -669.800
  H      141.863     -33.206    -670.677
  P      141.987     -34.370    -673.280
  C      144.347     -35.300    -673.829
  O      143.004     -35.134    -674.265
  C      145.280     -35.404    -675.035
  O      145.203     -34.187    -675.825
  C      146.753     -35.562    -674.689
  O      147.072     -36.909    -674.327
  C      147.397     -35.169    -676.017
  O      147.351     -36.286    -676.924
  C      146.480     -34.052    -676.508
  N      148.126     -29.685    -678.656
  C      147.675     -30.839    -679.198
  N      147.254     -31.961    -678.564
  C      147.333     -31.811    -677.232
  C      147.782     -30.690    -676.543
  C      148.195     -29.594    -677.310
  N      148.672     -28.422    -676.750
  N      147.702     -30.898    -675.178
  C      147.222     -32.122    -675.039
  N      146.988     -32.720    -676.271
  O      142.527     -32.859    -673.294
  O      140.552     -34.442    -673.658
  H      147.890     -36.037    -677.700
  H      141.931     -32.315    -673.841
  H      147.619     -30.865    -680.286
  H      147.026     -32.611    -674.097
  H      146.271     -34.150    -677.583
  H      148.448     -34.877    -675.902
  H      147.056     -34.861    -673.906
  H      144.932     -36.238    -675.663
  H      144.426     -36.226    -673.244
  H      148.762     -27.612    -677.333
  H      148.718     -28.368    -675.730
  H      144.620     -34.453    -673.200
  P      147.996     -37.124    -673.043
  C      147.164     -39.579    -672.943
  O      148.294     -38.703    -672.969
  O      146.994     -36.870    -671.810
  O      149.199     -36.230    -672.961
  H      147.499     -36.586    -671.028
  H      147.500     -40.594    -672.894
  H      146.583     -39.438    -673.831
  H      146.563     -39.360    -672.085

 6  7  8  9  10  11  12  13  14  15  25  28  32  33  34  35 0
 6-311+G(2d,p)
 ****
 36  39  40 0
 6-311+G(2d,p)
 ****
 1  2  3  4  5  16  17  18  19  20  21  22  23  24 0
 3-21G
 ****
 26  27  29  30  31  37  38  41  42  43  44  45  46  47  48 0
 3-21G
 ****


