%nproc=1
%NoSave
%Mem=1900MB
#P OB98/GEN NMR

erre ene a

0 1
  C      175.383    -121.829     226.896
  O      175.290    -121.682     228.320
  P      176.338    -120.831     229.182
  C      174.744    -119.139     230.302
  O      175.606    -120.257     230.491
  C      173.468    -119.264     231.145
  O      172.599    -120.275     230.604
  C      173.696    -119.658     232.598
  O      174.180    -118.561     233.356
  C      172.305    -120.143     232.992
  O      171.449    -119.043     233.342
  C      171.829    -120.821     231.692
  N      171.930    -122.276     231.749
  C      170.966    -122.937     232.514
  O      170.117    -122.305     233.138
  N      170.996    -124.314     232.556
  C      171.955    -124.958     231.965
  N      171.937    -126.316     232.039
  C      173.045    -124.287     231.226
  C      172.966    -122.956     231.158
  O      177.076    -119.798     228.393
  O      177.363    -121.912     229.778
  H      170.543    -119.405     233.393
  H      178.242    -121.498     229.876
  H      173.834    -124.859     230.765
  H      173.720    -122.387     230.627
  H      170.782    -120.551     231.484
  H      172.328    -120.819     233.853
  H      174.406    -120.495     232.646
  H      172.937    -118.300     231.087
  H      171.172    -126.743     232.547
  H      174.472    -119.090     229.241
  H      172.629    -126.909     231.610
  H      175.286    -118.226     230.568
  P      175.400    -118.769     234.374
  C      176.848    -117.010     233.186
  O      176.241    -117.413     234.408
  O      176.203    -120.013     234.167
  O      174.693    -118.777     235.813
  H      175.198    -119.360     236.406
  H      177.028    -115.934     233.222
  H      176.199    -117.236     232.335
  H      177.798    -117.527     233.071
  H      174.575    -122.438     226.547
  H      176.314    -122.293     226.645
  H      175.329    -120.866     226.434

 3  4  5  6  7  8  9  10  11  12  13  23  27  28  29  30  32 0
 6-311+G(2d,p)
 ****
 34  35 0
 6-311+G(2d,p)
 ****
 1  2  14  15  16  17  18  19  20  21  22  24  25  26 0
 3-21G
 ****
 31  33  36  37  38  39  40  41  42  43  44  45  46 0
 3-21G
 ****


