%nproc=1
%NoSave
%Mem=1900MB
#P OB98/GEN NMR

erre ene a

0 1
  C     -803.316     -22.722     220.715
  O     -804.217     -22.626     221.799
  P     -804.559     -21.212     222.464
  C     -802.737     -21.655     224.306
  O     -803.316     -20.775     223.375
  C     -801.489     -20.995     224.905
  O     -800.374     -21.135     224.012
  C     -801.711     -19.505     225.158
  O     -802.125     -19.280     226.502
  C     -800.354     -18.905     224.832
  O     -799.456     -19.048     225.955
  C     -799.894     -19.804     223.659
  N     -800.377     -19.484     222.307
  C     -799.828     -20.137     221.205
  O     -798.963     -21.007     221.283
  N     -800.291     -19.721     219.981
  C     -801.267     -18.788     219.767
  O     -801.493     -18.264     218.679
  C     -801.990     -18.345     220.963
  C     -801.505     -18.686     222.157
  O     -805.688     -21.572     223.536
  O     -804.997     -20.148     221.514
  H     -799.850     -18.557     226.697
  H     -806.573     -21.372     223.179
  H     -799.798     -20.095     219.174
  H     -802.850     -17.708     220.833
  H     -802.004     -18.333     223.058
  H     -798.797     -19.852     223.612
  H     -800.428     -17.836     224.639
  H     -802.450     -19.104     224.449
  H     -801.236     -21.503     225.851
  H     -802.469     -22.601     223.822
  H     -803.456     -21.893     225.094
  P     -803.083     -18.044     226.832
  C     -801.144     -16.598     227.675
  O     -802.158     -16.739     226.703
  O     -803.865     -18.155     228.102
  O     -804.052     -17.973     225.547
  H     -804.894     -18.426     225.740
  H     -800.490     -15.780     227.381
  H     -800.567     -17.513     227.763
  H     -801.602     -16.348     228.643
  H     -803.224     -23.746     220.417
  H     -802.358     -22.350     221.013
  H     -803.684     -22.143     219.893

 3  4  5  6  7  8  9  10  11  12  13  23  28  29  30  31  32 0
 6-311+G(2d,p)
 ****
 33  34 0
 6-311+G(2d,p)
 ****
 1  2  14  15  16  17  18  19  20  21  22  24  25  26  27 0
 3-21G
 ****
 35  36  37  38  39  40  41  42  43  44  45 0
 3-21G
 ****


