%nproc=1
%NoSave
%Mem=1900MB
#P OB98/GEN NMR

erre ene a

0 1
  C     -192.649     143.004     146.968
  O     -191.777     141.894     146.965
  H     -192.621     143.465     147.960
  H     -193.673     142.683     146.762
  H     -192.336     143.747     146.229
  P     -191.525     141.111     145.588
  C     -193.442     139.486     146.153
  O     -192.906     140.395     145.202
  C     -193.178     138.050     145.707
  O     -193.632     137.120     146.714
  C     -193.903     137.659     144.424
  O     -193.266     138.224     143.294
  C     -193.835     136.143     144.516
  O     -192.545     135.657     144.114
  C     -194.051     135.915     146.033
  N     -195.436     135.574     146.364
  C     -195.792     134.238     146.206
  O     -195.015     133.375     145.809
  N     -197.102     133.936     146.479
  C     -198.079     134.835     146.796
  O     -199.275     134.555     146.816
  C     -197.627     136.216     147.022
  C     -196.350     136.522     146.783
  O     -190.323     140.228     145.554
  O     -191.418     142.287     144.503
  H     -190.477     142.447     144.295
  H     -192.511     134.715     144.369
  H     -197.384     132.980     146.322
  H     -198.360     136.949     147.337
  H     -196.001     137.541     146.914
  H     -193.405     135.105     146.393
  H     -194.573     135.653     143.880
  H     -194.952     137.969     144.474
  H     -192.092     137.922     145.595
  H     -194.523     139.652     146.224
  H     -192.987     139.680     147.130
  P     -194.115     138.872     142.103
  C     -194.476     136.621     140.932
  O     -195.103     137.747     141.529
  O     -193.310     139.578     141.063
  O     -195.114     139.886     142.838
  H     -195.028     140.769     142.430
  H     -195.224     135.938     140.586
  H     -193.855     136.134     141.655
  H     -193.877     136.943     140.106

 6  7  8  9  10  11  12  13  14  15  16  27  31  32  33  34  35 0
 6-311+G(2d,p)
 ****
 36  37 0
 6-311+G(2d,p)
 ****
 1  2  3  4  5  17  18  19  20  21  22  23  24  25 0
 3-21G
 ****
 26  28  29  30  38  39  40  41  42  43  44  45 0
 3-21G
 ****


