%nproc=1
%NoSave
%Mem=1900MB
#P OB98/GEN NMR

erre ene a

0 1
  C      185.795     -18.232    -235.195
  O      185.723     -19.324    -236.117
  P      184.364     -20.174    -236.149
  C      185.364     -21.992    -234.574
  O      184.300     -21.081    -234.830
  C      185.211     -22.600    -233.178
  O      183.854     -23.010    -232.934
  C      186.048     -23.852    -232.978
  O      187.401     -23.515    -232.745
  C      185.362     -24.504    -231.784
  O      185.924     -24.058    -230.539
  C      183.896     -24.033    -231.924
  N      182.984     -25.120    -232.234
  C      182.297     -25.672    -231.148
  O      182.497     -25.248    -230.007
  N      181.422     -26.703    -231.379
  C      181.269     -27.159    -232.583
  N      180.393     -28.186    -232.749
  C      181.996     -26.625    -233.752
  C      182.831     -25.617    -233.508
  O      184.624     -21.238    -237.316
  O      183.144     -19.355    -236.414
  H      185.961     -23.082    -230.601
  H      183.792     -21.447    -237.775
  H      181.841     -27.044    -234.735
  H      183.408     -25.162    -234.307
  H      183.556     -23.564    -230.991
  H      185.471     -25.593    -231.806
  H      185.962     -24.505    -233.856
  H      185.490     -21.840    -232.436
  H      179.914     -28.529    -231.926
  H      186.324     -21.480    -234.655
  H      180.202     -28.622    -233.640
  H      185.355     -22.769    -235.346
  P      188.461     -23.845    -233.898
  C      188.857     -26.148    -232.833
  O      188.480     -25.446    -234.002
  O      189.858     -23.547    -233.166
  O      188.334     -23.097    -235.181
  H      190.591     -23.621    -233.802
  H      188.629     -27.207    -232.972
  H      188.303     -25.779    -231.966
  H      189.932     -26.039    -232.665
  H      186.750     -17.756    -235.279
  H      185.666     -18.598    -234.198
  H      185.023     -17.525    -235.418

 3  4  5  6  7  8  9  10  11  12  13  21  23  27  28  29  30  32 0
 6-311+G(2d,p)
 ****
 34  35 0
 6-311+G(2d,p)
 ****
 1  2  14  15  16  17  18  19  20  22  24  25  26 0
 3-21G
 ****
 31  33  36  37  38  39  40  41  42  43  44  45  46 0
 3-21G
 ****


