%nproc=1
%NoSave
%Mem=1900MB
#P OB98/GEN NMR

erre ene a

0 1
  C       47.606     -13.332     197.839
  O       46.901     -14.141     196.921
  H       47.750     -12.344     197.396
  H       48.588     -13.767     198.046
  H       47.045     -13.219     198.771
  P       46.397     -15.586     197.394
  C       46.734     -16.794     195.136
  O       45.804     -16.317     196.097
  C       46.129     -16.758     193.728
  O       46.310     -15.416     193.180
  C       46.779     -17.742     192.735
  O       45.765     -18.118     191.793
  C       47.829     -16.852     192.095
  O       48.400     -17.427     190.948
  C       46.998     -15.574     191.919
  N       47.759     -14.373     191.595
  C       47.422     -13.688     190.432
  O       46.525     -14.022     189.659
  N       48.167     -12.570     190.162
  C       49.181     -12.076     190.930
  O       49.793     -11.052     190.654
  C       49.495     -12.847     192.142
  C       48.779     -13.938     192.419
  O       45.508     -15.604     198.592
  O       47.757     -16.391     197.660
  H       47.934     -16.427     198.619
  H       47.691     -17.833     190.405
  H       47.934     -12.059     189.326
  H       50.301     -12.488     192.768
  H       48.981     -14.521     193.311
  H       46.232     -15.729     191.153
  H       48.655     -16.689     192.791
  H       47.177     -18.638     193.218
  H       45.048     -16.928     193.802
  H       46.997     -17.825     195.398
  H       47.638     -16.177     195.173
  P       45.341     -19.641     191.509
  C       45.841     -19.683     188.969
  O       44.846     -19.745     189.984
  O       44.365     -20.191     192.496
  O       46.709     -20.471     191.526
  H       46.526     -21.395     191.775
  H       45.376     -19.764     188.009
  H       46.534     -20.488     189.099
  H       46.361     -18.751     189.036

 6  7  8  9  10  11  12  13  14  15  16  27  31  32  33  34  35 0
 6-311+G(2d,p)
 ****
 36  37 0
 6-311+G(2d,p)
 ****
 1  2  3  4  5  17  18  19  20  21  22  23  24  25 0
 3-21G
 ****
 26  28  29  30  38  39  40  41  42  43  44  45 0
 3-21G
 ****


