%nproc=1
%NoSave
%Mem=1900MB
#P OB98/GEN NMR

erre ene a

0 1
  C      -86.024    -739.583     168.673
  O      -84.804    -739.291     169.308
  H      -86.378    -738.687     168.155
  H      -86.775    -739.875     169.411
  H      -85.898    -740.381     167.937
  P      -84.016    -740.509     170.000
  C      -82.089    -740.438     168.253
  O      -83.138    -741.208     168.842
  C      -81.502    -741.194     167.061
  O      -82.518    -741.341     166.033
  C      -80.294    -740.479     166.423
  O      -79.335    -741.468     166.032
  C      -80.882    -739.818     165.183
  O      -79.909    -739.586     164.170
  C      -81.992    -740.814     164.808
  N      -83.029    -740.160     164.007
  C      -82.651    -739.697     162.734
  O      -81.494    -739.835     162.352
  N      -83.575    -739.050     161.962
  C      -84.758    -738.797     162.452
  N      -85.621    -738.107     161.653
  C      -85.173    -739.196     163.812
  C      -84.276    -739.878     164.528
  O      -85.165    -741.586     170.277
  O      -83.253    -740.161     171.234
  H      -79.551    -740.464     163.882
  H      -84.977    -742.111     171.075
  H      -86.157    -738.936     164.186
  H      -84.493    -740.215     165.529
  H      -81.581    -741.646     164.235
  H      -81.312    -738.847     165.464
  H      -79.818    -739.758     167.097
  H      -81.221    -742.204     167.386
  H      -85.296    -737.826     160.730
  H      -81.296    -740.282     168.998
  H      -86.547    -737.817     161.943
  H      -82.483    -739.462     167.939
  P      -78.302    -741.973     167.153
  C      -79.222    -744.403     167.277
  O      -78.988    -743.179     167.954
  O      -78.298    -740.762     168.203
  O      -76.927    -742.255     166.621
  H      -77.458    -740.279     168.159
  H      -79.682    -745.099     167.947
  H      -78.292    -744.803     166.931
  H      -79.869    -744.231     166.442

 6  7  8  9  10  11  12  13  14  15  16  26  30  31  32  33  35 0
 6-311+G(2d,p)
 ****
 37  38 0
 6-311+G(2d,p)
 ****
 1  2  3  4  5  17  18  19  20  21  22  23  24  25 0
 3-21G
 ****
 27  28  29  34  36  39  40  41  42  43  44  45  46 0
 3-21G
 ****


