%nproc=1
%NoSave
%Mem=1900MB
#P OB98/GEN NMR

erre ene a

0 1
  C      177.758      71.099      60.602
  O      176.639      70.235      60.838
  P      176.318      69.148      59.703
  C      176.701      67.236      61.422
  O      175.852      67.791      60.423
  C      175.867      66.722      62.593
  O      175.348      67.806      63.399
  C      174.640      65.923      62.160
  O      175.010      64.622      61.720
  C      173.818      65.948      63.446
  O      174.309      64.969      64.376
  C      174.099      67.360      63.980
  N      171.431      71.364      65.727
  C      172.418      70.624      66.279
  N      173.076      69.569      65.752
  C      172.632      69.310      64.510
  C      171.640      69.980      63.809
  C      171.021      71.057      64.477
  N      170.004      71.802      63.911
  N      171.461      69.421      62.561
  C      172.318      68.417      62.514
  N      173.054      68.317      63.664
  O      177.763      68.788      59.112
  O      175.395      69.649      58.638
  H      174.537      64.165      63.862
  H      177.861      69.169      58.220
  H      172.710      70.915      67.285
  H      172.436      67.741      61.676
  H      174.228      67.370      65.069
  H      172.758      65.737      63.277
  H      174.107      66.453      61.362
  H      176.516      66.097      63.228
  H      177.414      67.984      61.774
  H      169.559      72.501      64.482
  H      169.636      71.522      63.014
  H      177.290      66.427      60.971
  P      174.074      63.925      60.616
  C      176.059      63.114      59.201
  O      174.995      62.729      60.051
  O      174.114      64.992      59.430
  O      172.723      63.525      61.099
  H      175.020      65.311      59.263
  H      176.623      62.216      58.918
  H      176.732      63.805      59.724
  H      175.665      63.590      58.294
  H      177.867      71.774      61.425
  H      177.595      71.656      59.703
  H      178.647      70.512      60.502

 3  4  5  6  7  8  9  10  11  12  22  25  29  30  31  32 0
 6-311+G(2d,p)
 ****
 33  36  37 0
 6-311+G(2d,p)
 ****
 1  2  13  14  15  16  17  18  19  20  21  23  24  26 0
 3-21G
 ****
 27  28  34  35  38  39  40  41  42  43  44  45  46  47  48 0
 3-21G
 ****


