%nproc=1
%NoSave
%Mem=1900MB
#P OB98/GEN NMR

erre ene a

0 1
  C      114.160     416.377     306.584
  O      115.227     416.235     305.664
  H      114.468     415.971     307.550
  H      113.279     415.833     306.229
  H      113.908     417.435     306.716
  P      114.929     416.697     304.154
  C      114.774     414.351     303.015
  O      115.560     415.508     303.276
  C      115.274     413.662     301.753
  O      114.466     412.507     301.452
  C      115.220     414.535     300.501
  O      116.294     415.460     300.429
  C      115.321     413.468     299.425
  O      116.681     413.004     299.321
  C      114.402     412.372     300.004
  N      113.015     412.476     299.543
  C      112.650     411.672     298.449
  O      113.482     410.926     297.915
  N      111.365     411.754     297.964
  C      110.509     412.561     298.526
  N      109.259     412.613     297.993
  C      110.846     413.406     299.683
  C      112.094     413.316     300.135
  O      115.972     417.891     303.914
  O      113.510     417.038     303.833
  H      116.719     412.418     298.548
  H      115.956     418.162     302.962
  H      110.108     414.068     300.107
  H      112.416     413.916     300.980
  H      114.781     411.365     299.751
  H      115.031     413.830     298.437
  H      114.254     415.040     300.406
  H      116.300     413.305     301.950
  H      109.079     412.056     297.162
  H      113.725     414.659     302.891
  H      108.590     413.323     298.242
  H      114.843     413.658     303.860
  P      115.940     416.966     299.976
  C      116.234     416.643     297.411
  O      116.731     417.237     298.605
  O      116.741     417.860     301.043
  O      114.478     417.297     299.955
  H      116.233     418.642     301.306
  H      116.863     416.914     296.589
  H      115.239     416.990     297.228
  H      116.227     415.578     297.519

 6  7  8  9  10  11  12  13  14  15  16  26  30  31  32  33  35 0
 6-311+G(2d,p)
 ****
 37  38 0
 6-311+G(2d,p)
 ****
 1  2  3  4  5  17  18  19  20  21  22  23  24  25 0
 3-21G
 ****
 27  28  29  34  36  39  40  41  42  43  44  45  46 0
 3-21G
 ****


