%nproc=1
%NoSave
%Mem=1900MB
#P OB98/GEN NMR

erre ene a

0 1
  C      182.335     511.647    -328.684
  O      183.040     512.111    -329.840
  P      182.498     513.397    -330.637
  C      184.048     515.105    -329.454
  O      182.708     514.701    -329.728
  C      184.421     516.305    -330.336
  O      183.679     517.496    -329.946
  C      185.890     516.704    -330.198
  O      186.831     515.808    -330.740
  C      185.885     518.127    -330.729
  O      185.958     518.152    -332.160
  C      184.512     518.637    -330.244
  N      184.626     519.533    -329.086
  C      184.456     520.888    -329.330
  O      184.267     521.348    -330.459
  N      184.548     521.710    -328.243
  C      184.821     521.322    -326.958
  O      184.920     522.106    -326.023
  C      185.017     519.878    -326.763
  C      184.916     519.060    -327.815
  O      181.150     513.253    -331.257
  O      183.614     513.596    -331.777
  H      185.875     519.078    -332.444
  H      183.153     513.835    -332.605
  H      184.422     522.700    -328.403
  H      185.246     519.533    -325.763
  H      185.056     517.986    -327.690
  H      184.004     519.198    -331.042
  H      186.748     518.695    -330.355
  H      186.124     516.762    -329.123
  H      184.165     516.078    -331.369
  H      184.728     514.276    -329.639
  H      184.132     515.350    -328.392
  P      187.787     514.880    -329.834
  C      186.813     512.565    -330.500
  O      186.986     513.532    -329.488
  O      188.534     515.538    -328.716
  O      188.842     514.352    -330.920
  H      189.711     514.240    -330.475
  H      186.238     511.729    -330.098
  H      187.775     512.195    -330.856
  H      186.254     512.996    -331.341
  H      182.833     510.789    -328.283
  H      181.335     511.384    -328.958
  H      182.310     512.422    -327.946

 3  4  5  6  7  8  9  10  11  12  13  23  28  29  30  31  32 0
 6-311+G(2d,p)
 ****
 33  34 0
 6-311+G(2d,p)
 ****
 1  2  14  15  16  17  18  19  20  21  22  24  25  26  27 0
 3-21G
 ****
 35  36  37  38  39  40  41  42  43  44  45 0
 3-21G
 ****


