%nproc=1
%NoSave
%Mem=1900MB
#P OB98/GEN NMR

erre ene a

0 1
  C       -5.731     -82.814      25.106
  O       -4.936     -81.842      24.407
  P       -5.636     -80.498      23.870
  C       -7.187     -79.827      21.873
  O       -6.407     -80.832      22.503
  C       -7.710     -80.334      20.526
  O       -6.632     -80.429      19.567
  C       -8.323     -81.726      20.574
  O       -9.625     -81.713      21.133
  C       -8.300     -82.116      19.101
  O       -9.431     -81.565      18.405
  C       -6.992     -81.458      18.619
  N       -5.910     -82.422      18.441
  C       -5.536     -82.698      17.131
  O       -6.106     -82.219      16.152
  N       -4.499     -83.577      16.978
  C       -3.859     -84.245      17.984
  O       -2.948     -85.037      17.782
  C       -4.352     -83.974      19.341
  C       -5.342     -83.094      19.504
  O       -4.377     -79.656      23.343
  O       -6.407     -79.719      24.884
  H      -10.224     -82.013      18.762
  H       -4.575     -78.702      23.403
  H       -4.192     -83.769      16.038
  H       -3.888     -84.501      20.165
  H       -5.717     -82.882      20.501
  H       -7.159     -80.942      17.666
  H       -8.331     -83.200      18.955
  H       -7.667     -82.403      21.134
  H       -8.439     -79.605      20.146
  H       -6.567     -78.941      21.705
  H       -8.017     -79.555      22.531
  P      -10.100     -83.051      21.886
  C       -9.752     -85.564      21.258
  O       -9.888     -84.230      20.822
  O      -11.683     -82.821      21.943
  O       -9.448     -83.237      23.215
  H      -12.012     -82.337      21.166
  H      -10.345     -85.757      22.155
  H       -8.698     -85.770      21.467
  H      -10.092     -86.231      20.461
  H       -5.114     -83.640      25.392
  H       -6.516     -83.159      24.466
  H       -6.155     -82.366      25.981

 3  4  5  6  7  8  9  10  11  12  13  23  28  29  30  31  32 0
 6-311+G(2d,p)
 ****
 33  34 0
 6-311+G(2d,p)
 ****
 1  2  14  15  16  17  18  19  20  21  22  24  25  26 0
 3-21G
 ****
 27  35  36  37  38  39  40  41  42  43  44  45 0
 3-21G
 ****


