%nproc=1
%NoSave
%Mem=1900MB
#P OB98/GEN NMR

erre ene a

0 1
  C     -761.542     -23.491    -973.232
  O     -760.610     -23.536    -972.159
  P     -759.050     -23.553    -972.546
  C     -757.521     -25.114    -973.946
  O     -758.786     -24.927    -973.341
  C     -756.859     -26.373    -973.403
  O     -757.692     -27.544    -973.642
  C     -755.518     -26.713    -974.041
  O     -754.484     -25.873    -973.558
  C     -755.372     -28.194    -973.640
  O     -754.948     -28.286    -972.289
  C     -756.828     -28.679    -973.773
  N     -755.906     -32.829    -976.631
  C     -755.455     -32.478    -975.418
  N     -755.731     -31.337    -974.732
  C     -756.547     -30.549    -975.434
  C     -757.090     -30.771    -976.697
  C     -756.711     -31.972    -977.301
  N     -757.167     -32.356    -978.581
  N     -757.863     -29.711    -977.122
  C     -757.855     -28.887    -976.117
  N     -757.104     -29.334    -975.058
  O     -758.334     -23.786    -971.118
  O     -758.561     -22.302    -973.235
  H     -754.033     -27.913    -972.236
  H     -757.476     -23.314    -971.106
  H     -754.798     -33.160    -974.921
  H     -758.362     -27.925    -976.084
  H     -757.106     -29.400    -972.981
  H     -754.670     -28.738    -974.271
  H     -755.565     -26.625    -975.144
  H     -756.736     -26.260    -972.303
  H     -756.870     -24.258    -973.749
  H     -756.741     -33.168    -978.979
  H     -757.645     -31.645    -979.119
  H     -757.644     -25.171    -975.034
  P     -753.183     -25.677    -974.467
  C     -751.231     -27.246    -975.076
  O     -752.317     -27.015    -974.192
  O     -752.362     -24.556    -973.656
  O     -753.455     -25.369    -975.908
  H     -752.308     -24.788    -972.710
  H     -750.698     -28.153    -974.748
  H     -750.541     -26.385    -975.055
  H     -751.589     -27.418    -976.104
  H     -762.537     -23.484    -972.840
  H     -761.410     -24.351    -973.855
  H     -761.380     -22.604    -973.809

 3  4  5  6  7  8  9  10  11  12  22  25  29  30  31  32 0
 6-311+G(2d,p)
 ****
 33  36  37 0
 6-311+G(2d,p)
 ****
 1  2  13  14  15  16  17  18  19  20  21  23  24  26 0
 3-21G
 ****
 27  28  34  35  38  39  40  41  42  43  44  45  46  47  48 0
 3-21G
 ****


