%nproc=1
%NoSave
%Mem=1900MB
#P OB98/GEN NMR

erre ene a

0 1
  C      350.892    -229.944      49.359
  O      352.073    -229.588      50.050
  H      350.937    -231.010      49.112
  H      350.791    -229.376      48.433
  H      350.016    -229.772      49.995
  P      352.360    -228.027      50.297
  C      353.208    -226.078      48.828
  O      352.751    -227.426      48.858
  C      354.461    -225.941      47.955
  O      354.170    -226.367      46.607
  C      354.963    -224.511      47.819
  O      355.512    -223.976      49.011
  C      355.816    -224.580      46.565
  O      357.155    -225.000      46.811
  C      355.075    -225.659      45.733
  N      354.379    -225.083      44.588
  C      355.187    -224.448      43.646
  O      356.413    -224.341      43.764
  N      354.539    -223.892      42.580
  C      353.183    -223.869      42.392
  O      352.657    -223.319      41.430
  C      352.383    -224.538      43.430
  C      353.006    -225.102      44.463
  O      353.357    -227.709      51.376
  O      350.907    -227.410      50.559
  H      357.548    -225.216      45.946
  H      350.969    -226.516      50.986
  H      355.110    -223.438      41.885
  H      351.303    -224.534      43.311
  H      352.435    -225.603      45.242
  H      355.789    -226.402      45.351
  H      355.873    -223.605      46.065
  H      354.106    -223.873      47.578
  H      355.238    -226.596      48.360
  H      353.455    -225.785      49.858
  H      352.410    -225.426      48.456
  P      355.773    -222.423      49.238
  C      356.832    -220.481      47.864
  O      356.711    -221.888      48.037
  O      356.079    -221.983      50.626
  O      354.340    -221.796      48.836
  H      354.186    -221.014      49.406
  H      357.480    -220.278      47.037
  H      357.241    -220.046      48.752
  H      355.867    -220.061      47.673

 6  7  8  9  10  11  12  13  14  15  16  26  31  32  33  34  35 0
 6-311+G(2d,p)
 ****
 36  37 0
 6-311+G(2d,p)
 ****
 1  2  3  4  5  17  18  19  20  21  22  23  24  25 0
 3-21G
 ****
 27  28  29  30  38  39  40  41  42  43  44  45 0
 3-21G
 ****


