%nproc=1
%NoSave
%Mem=1900MB
#P OB98/GEN NMR

erre ene a

0 1
  C       92.988    -199.364      -1.156
  O       93.340    -200.697      -1.528
  P       92.324    -201.890      -1.180
  C       91.827    -203.375       0.869
  O       92.782    -202.548       0.212
  C       92.278    -203.702       2.296
  O       93.498    -204.468       2.308
  C       92.566    -202.465       3.131
  O       91.367    -201.826       3.528
  C       93.393    -203.059       4.266
  O       92.546    -203.635       5.273
  C       94.190    -204.170       3.542
  N       95.583    -203.816       3.303
  C       96.420    -203.829       4.427
  O       95.961    -204.085       5.540
  N       97.751    -203.533       4.257
  C       98.202    -203.243       3.073
  N       99.528    -202.962       2.965
  C       97.351    -203.210       1.867
  C       96.062    -203.495       2.055
  O       92.058    -202.856      -2.287
  O       90.986    -201.106      -0.762
  H       91.998    -204.303       4.814
  H       90.212    -201.658      -0.987
  H       97.775    -202.968       0.902
  H       95.367    -203.491       1.223
  H       94.177    -205.094       4.134
  H       94.011    -202.301       4.758
  H       93.186    -201.766       2.551
  H       91.487    -204.298       2.777
  H      100.091    -202.983       3.808
  H       91.692    -204.301       0.300
  H       99.985    -202.776       2.082
  H       90.856    -202.862       0.869
  P       91.282    -200.230       3.363
  C       92.301    -198.163       4.549
  O       92.254    -199.575       4.453
  O       89.816    -199.890       3.921
  O       91.453    -199.734       1.961
  H       89.444    -199.138       3.426
  H       92.747    -197.897       5.516
  H       91.299    -197.725       4.491
  H       92.926    -197.758       3.751
  H       93.765    -198.693      -1.457
  H       92.862    -199.311      -0.095
  H       92.073    -199.089      -1.638

 3  4  5  6  7  8  9  10  11  12  13  23  27  28  29  30  32 0
 6-311+G(2d,p)
 ****
 34  35 0
 6-311+G(2d,p)
 ****
 1  2  14  15  16  17  18  19  20  21  22  24  25  26 0
 3-21G
 ****
 31  33  36  37  38  39  40  41  42  43  44  45  46 0
 3-21G
 ****


