%nproc=1
%NoSave
%Mem=1900MB
#P OB98/GEN NMR

erre ene a

0 1
  C     -387.288     239.337     188.915
  O     -388.002     238.126     188.772
  H     -387.173     239.555     189.980
  H     -387.843     240.157     188.445
  H     -386.297     239.250     188.461
  P     -388.241     237.602     187.275
  C     -390.817     237.977     187.386
  O     -389.750     237.049     187.229
  C     -391.901     237.377     188.274
  O     -392.683     236.434     187.506
  C     -391.368     236.588     189.466
  O     -390.969     237.438     190.530
  C     -392.570     235.715     189.805
  O     -393.518     236.417     190.620
  C     -393.176     235.434     188.422
  N     -393.924     230.444     189.170
  C     -394.446     231.538     189.772
  N     -394.207     232.837     189.497
  C     -393.335     232.955     188.482
  C     -392.712     231.934     187.782
  C     -393.043     230.620     188.156
  N     -392.484     229.511     187.571
  N     -391.846     232.451     186.838
  C     -391.947     233.762     186.964
  N     -392.838     234.109     187.940
  O     -387.346     236.273     187.212
  O     -387.886     238.569     186.196
  H     -393.002     236.922     191.279
  H     -386.473     236.486     186.834
  H     -395.147     231.340     190.581
  H     -391.393     234.490     186.379
  H     -394.269     235.509     188.427
  H     -392.268     234.822     190.352
  H     -390.537     235.941     189.153
  H     -392.567     238.183     188.607
  H     -391.241     238.210     186.400
  H     -390.419     238.899     187.830
  H     -392.743     228.596     187.911
  H     -391.747     229.634     186.890
  P     -389.704     237.010     191.416
  C     -391.095     236.837     193.610
  O     -390.009     237.445     192.932
  O     -388.568     238.030     190.947
  O     -389.286     235.587     191.254
  H     -387.963     237.602     190.310
  H     -391.163     237.233     194.602
  H     -390.939     235.780     193.658
  H     -392.003     237.040     193.082

 6  7  8  9  10  11  12  13  14  15  25  28  32  33  34  35 0
 6-311+G(2d,p)
 ****
 36  37  40 0
 6-311+G(2d,p)
 ****
 1  2  3  4  5  16  17  18  19  20  21  22  23  24 0
 3-21G
 ****
 26  27  29  30  31  38  39 41  42  43  44  45  46  47  48 0
 3-21G
 ****


