%nproc=1
%NoSave
%Mem=1900MB
#P OB98/GEN NMR

erre ene a

0 1
  C       -7.662      12.585     -28.986
  O       -8.616      12.494     -30.023
  H       -7.853      13.496     -28.411
  H       -6.655      12.638     -29.405
  H       -7.744      11.723     -28.319
  P       -8.510      11.222     -30.994
  C       -7.216      12.354     -32.936
  O       -7.169      11.430     -31.859
  C       -6.471      11.797     -34.150
  O       -5.046      11.776     -33.860
  C       -6.887      10.369     -34.530
  O       -6.888      10.253     -35.956
  C       -5.758       9.522     -33.967
  O       -5.649       8.265     -34.627
  C       -4.571      10.455     -34.182
  N       -0.122       8.109     -34.255
  C       -1.021       8.358     -35.274
  N       -0.689       7.909     -36.504
  N       -2.151       8.989     -35.101
  C       -2.344       9.404     -33.826
  C       -1.540       9.212     -32.729
  C       -0.300       8.492     -32.929
  O        0.526       8.221     -32.063
  N       -2.104       9.754     -31.601
  C       -3.246      10.273     -32.018
  N       -3.433      10.088     -33.360
  O       -9.676      11.469     -32.062
  O       -8.627       9.892     -30.329
  H       -6.473       7.763     -34.456
  H      -10.030      10.621     -32.393
  H        0.730       7.609     -34.441
  H       -3.966      10.785     -31.394
  H       -4.225      10.458     -35.224
  H       -5.923       9.337     -32.899
  H        0.179       7.444     -36.719
  H       -7.863      10.078     -34.137
  H       -1.328       8.092     -37.269
  H       -6.611      12.485     -34.992
  H       -6.747      13.293     -32.622
  H       -8.260      12.547     -33.200
  P       -8.172      10.800     -36.745
  C       -9.041       8.475     -37.500
  O       -9.297       9.656     -36.756
  O       -7.669      10.841     -38.265
  O       -8.631      12.147     -36.292
  H       -7.540      11.765     -38.544
  H       -9.875       7.811     -37.413
  H       -8.163       7.997     -37.119
  H       -8.892       8.727     -38.529

 6  7  8  9  10  11  12  13  14  15  26  29  33  34 0
 6-311+G(2d,p)
 ****
 36  38  39  40  41 0
 6-311+G(2d,p)
 ****
 1  2  3  4  5  16  17  18  19  20  21  22  23  24  25 0
 3-21G
 ****
 27  28  30  31  32  35  37  42  43  44  45  46  47 0
 3-21G
 ****
 48  49 0
 3-21G
 ****


