%nproc=1
%NoSave
%Mem=1900MB
#P OB98/GEN NMR

erre ene a

0 1
  C      359.391     111.156    -177.867
  O      359.326     111.644    -179.195
  P      357.980     111.505    -180.049
  C      358.922     109.487    -181.333
  O      357.852     109.978    -180.533
  C      358.655     108.040    -181.746
  O      358.807     107.145    -180.615
  C      357.246     107.786    -182.258
  O      357.052     108.322    -183.556
  C      357.170     106.271    -182.172
  O      357.815     105.657    -183.299
  C      357.975     105.991    -180.882
  N      357.107     105.687    -179.749
  C      356.428     104.467    -179.807
  O      356.504     103.757    -180.812
  N      355.664     104.090    -178.730
  C      355.495     104.910    -177.738
  N      354.783     104.458    -176.674
  C      356.070     106.272    -177.713
  C      356.879     106.582    -178.727
  O      357.798     112.518    -181.124
  O      356.814     111.622    -178.950
  H      356.164     112.284    -179.258
  H      357.684     104.699    -183.213
  H      355.849     106.941    -176.894
  H      357.364     107.551    -178.783
  H      358.661     105.155    -181.036
  H      356.141     105.906    -182.151
  H      356.518     108.228    -181.569
  H      359.398     107.759    -182.508
  H      354.417     103.512    -176.722
  H      359.845     109.541    -180.756
  H      354.864     104.869    -175.748
  H      359.034     110.121    -182.220
  P      355.607     108.944    -183.874
  C      354.622     106.763    -184.866
  O      354.547     107.740    -183.849
  O      355.703     109.334    -185.422
  O      355.241     110.130    -183.038
  H      355.209     110.160    -185.587
  H      354.100     105.871    -184.527
  H      355.659     106.502    -185.097
  H      354.133     107.141    -185.767
  H      360.366     111.341    -177.467
  H      359.197     110.104    -177.864
  H      358.659     111.655    -177.267

 3  4  5  6  7  8  9  10  11  12  13  24  27  28  29  30  32 0
 6-311+G(2d,p)
 ****
 34  35 0
 6-311+G(2d,p)
 ****
 1  2  14  15  16  17  18  19  20  21  22  23  25  26 0
 3-21G
 ****
 31  33  36  37  38  39  40  41  42  43  44  45  46 0
 3-21G
 ****


