%nproc=1
%NoSave
%Mem=1900MB
#P OB98/GEN NMR

erre ene a

0 1
  C      678.468     353.097    -211.051
  O      677.602     354.200    -210.815
  P      677.353     355.319    -211.936
  C      679.281     356.579    -210.790
  O      678.734     356.131    -212.021
  C      680.724     357.053    -210.990
  O      681.545     355.896    -211.274
  C      680.946     358.000    -212.174
  O      680.688     359.365    -211.890
  C      682.446     357.807    -212.399
  O      683.188     358.569    -211.424
  C      682.622     356.307    -212.150
  N      685.380     353.667    -215.565
  C      685.726     354.304    -214.419
  N      684.935     355.007    -213.575
  C      683.650     354.964    -213.990
  C      683.154     354.359    -215.123
  C      684.086     353.676    -215.939
  N      683.727     353.010    -217.094
  N      681.787     354.558    -215.232
  C      681.480     355.262    -214.161
  N      682.570     355.533    -213.378
  O      676.133     356.141    -211.729
  O      677.323     354.500    -213.311
  H      684.130     358.389    -211.588
  H      676.925     355.045    -214.011
  H      686.774     354.264    -214.148
  H      680.485     355.602    -213.917
  H      683.566     356.074    -211.644
  H      682.773     358.160    -213.391
  H      680.406     357.665    -213.065
  H      681.077     357.504    -210.055
  H      679.276     355.738    -210.085
  H      684.437     352.448    -217.533
  H      682.743     352.882    -217.284
  H      678.660     357.380    -210.379
  P      680.055     360.254    -213.078
  C      682.435     361.086    -213.785
  O      681.233     360.449    -214.149
  O      679.393     361.504    -212.627
  O      679.065     359.224    -213.798
  H      679.494     358.480    -214.253
  H      683.161     360.970    -214.594
  H      682.855     360.639    -212.880
  H      682.253     362.158    -213.624
  H      678.495     352.472    -210.183
  H      679.453     353.456    -211.262
  H      678.107     352.533    -211.885

 3  4  5  6  7  8  9  10  11  12  22  25  29  30  31  32 0
 6-311+G(2d,p)
 ****
 33  36  37 0
 6-311+G(2d,p)
 ****
 1  2  13  14  15  16  17  18  19  20  21  23  24  26 0
 3-21G
 ****
 27  28  34  35  38  39  40  41  42  43  44  45  46  47  48 0
 3-21G
 ****


