%nproc=1
%NoSave
%Mem=1900MB
#P OB98/GEN NMR

erre ene a

0 1
  C     -273.150    -574.264     247.006
  O     -273.011    -574.028     248.394
  P     -272.629    -575.244     249.366
  C     -274.511    -574.398     250.954
  O     -273.189    -574.862     250.829
  C     -274.668    -573.469     252.174
  O     -274.499    -574.274     253.366
  C     -273.621    -572.360     252.267
  O     -274.098    -571.348     253.158
  C     -272.445    -573.084     252.898
  O     -271.522    -572.194     253.507
  C     -273.152    -574.072     253.876
  N     -272.444    -575.355     253.955
  C     -271.486    -575.484     254.964
  O     -271.286    -574.614     255.813
  N     -270.717    -576.620     254.916
  C     -270.774    -577.578     253.947
  O     -269.888    -578.402     253.744
  C     -271.948    -577.506     253.054
  C     -272.699    -576.406     253.071
  O     -271.044    -575.082     249.520
  O     -273.014    -576.591     248.882
  H     -272.031    -571.695     254.203
  H     -270.586    -575.678     248.901
  H     -269.934    -576.644     255.567
  H     -272.112    -578.324     252.367
  H     -273.539    -576.302     252.394
  H     -273.220    -573.662     254.887
  H     -271.914    -573.643     252.133
  H     -273.355    -571.915     251.304
  H     -275.676    -573.051     252.189
  H     -275.199    -575.252     251.032
  H     -274.814    -573.850     250.049
  P     -274.892    -570.096     252.554
  C     -272.983    -568.447     252.963
  O     -274.309    -568.797     253.273
  O     -276.380    -570.228     252.525
  O     -274.286    -569.989     251.071
  H     -274.875    -569.464     250.505
  H     -272.862    -567.364     253.058
  H     -272.706    -568.746     251.938
  H     -272.293    -568.934     253.675
  H     -273.405    -573.350     246.513
  H     -273.923    -574.985     246.843
  H     -272.227    -574.636     246.613

 3  4  5  6  7  8  9  10  11  12  13  23  28  29  30  31  32 0
 6-311+G(2d,p)
 ****
 33  34 0
 6-311+G(2d,p)
 ****
 1  2  14  15  16  17  18  19  20  21  22  24  25  26  27 0
 3-21G
 ****
 35  36  37  38  39  40  41  42  43  44  45 0
 3-21G
 ****


