%nproc=1
%NoSave
%Mem=1900MB
#P OB98/GEN NMR

erre ene a

0 1
  C     -346.707    -696.490     -53.289
  O     -345.956    -696.866     -52.151
  H     -347.769    -696.630     -53.064
  H     -346.448    -697.123     -54.142
  H     -346.538    -695.439     -53.535
  P     -344.375    -696.608     -52.157
  C     -343.921    -698.233     -54.102
  O     -343.681    -697.934     -52.732
  C     -342.705    -698.943     -54.697
  O     -341.622    -698.008     -54.883
  C     -342.144    -700.040     -53.807
  O     -342.954    -701.210     -53.842
  C     -340.754    -700.210     -54.398
  O     -340.781    -701.039     -55.568
  C     -340.391    -698.753     -54.773
  N     -339.489    -698.144     -53.795
  C     -338.132    -698.211     -54.091
  O     -337.680    -698.726     -55.105
  N     -337.294    -697.701     -53.133
  C     -337.663    -697.275     -51.886
  O     -336.865    -697.068     -50.980
  C     -339.118    -697.176     -51.656
  C     -339.944    -697.620     -52.601
  O     -343.805    -696.103     -50.869
  O     -344.170    -695.553     -53.342
  H     -344.049    -694.663     -52.960
  H     -341.504    -700.688     -56.124
  H     -336.304    -697.780     -53.320
  H     -339.452    -696.772     -50.708
  H     -341.017    -697.586     -52.443
  H     -339.915    -698.721     -55.762
  H     -340.065    -700.662     -53.686
  H     -342.055    -699.685     -52.779
  H     -342.986    -699.339     -55.685
  H     -344.089    -697.292     -54.643
  H     -344.820    -698.861     -54.183
  P     -343.711    -701.708     -52.525
  C     -341.499    -702.380     -51.394
  O     -342.789    -702.811     -51.807
  O     -345.128    -702.110     -52.720
  O     -343.604    -700.459     -51.518
  H     -344.499    -700.265     -51.168
  H     -340.982    -703.195     -50.932
  H     -341.598    -701.578     -50.693
  H     -340.946    -702.043     -52.246

 6  7  8  9  10  11  12  13  14  15  16  27  31  32  33  34  35 0
 6-311+G(2d,p)
 ****
 36  37 0
 6-311+G(2d,p)
 ****
 1  2  3  4  5  17  18  19  20  21  22  23  24  25 0
 3-21G
 ****
 26  28  29  30  38  39  40  41  42  43  44  45 0
 3-21G
 ****


