%nproc=1
%NoSave
%Mem=1900MB
#P OB98/GEN NMR

erre ene a

0 1
  C      299.180      55.534    -171.579
  O      298.602      54.661    -170.631
  H      299.713      56.325    -171.043
  H      298.410      55.995    -172.202
  H      299.896      54.996    -172.206
  P      297.662      53.474    -171.166
  C      299.478      51.666    -170.785
  O      298.694      52.376    -171.731
  C      300.013      50.376    -171.408
  O      300.942      49.721    -170.520
  C      298.952      49.322    -171.707
  O      298.154      49.631    -172.838
  C      299.842      48.110    -171.937
  O      300.454      48.202    -173.236
  C      300.895      48.295    -170.815
  N      300.581      47.534    -169.606
  C      301.259      46.319    -169.439
  O      302.075      45.935    -170.277
  N      300.973      45.549    -168.336
  C      300.073      45.941    -167.492
  N      299.792      45.119    -166.444
  C      299.348      47.219    -167.621
  C      299.641      47.955    -168.692
  O      296.569      53.868    -172.107
  O      297.129      52.758    -169.837
  H      301.100      48.929    -173.198
  H      296.531      52.022    -170.115
  H      298.600      47.498    -166.892
  H      299.138      48.900    -168.866
  H      301.891      48.007    -171.167
  H      299.300      47.162    -171.898
  H      298.326      49.133    -170.826
  H      300.573      50.653    -172.311
  H      300.278      44.232    -166.410
  H      298.850      51.450    -169.914
  H      298.932      45.214    -165.913
  H      300.330      52.272    -170.468
  P      296.757      48.855    -173.004
  C      295.357      51.048    -172.876
  O      295.634      49.774    -172.319
  O      296.910      47.625    -171.991
  O      296.421      48.415    -174.395
  H      297.240      46.830    -172.452
  H      294.590      51.528    -172.305
  H      295.029      50.931    -173.888
  H      296.244      51.647    -172.856

 6  7  8  9  10  11  12  13  14  15  16  26  30  31  32  33  35 0
 6-311+G(2d,p)
 ****
 37  38 0
 6-311+G(2d,p)
 ****
 1  2  3  4  5  17  18  19  20  21  22  23  24  25 0
 3-21G
 ****
 27  28  29  34  36  39  40  41  42  43  44  45  46 0
 3-21G
 ****


