%nproc=1
%NoSave
%Mem=1900MB
#P OB98/GEN NMR

erre ene a

0 1
  C      158.522     585.872    -163.707
  O      159.762     586.171    -163.099
  H      158.680     585.526    -164.732
  H      158.032     585.078    -163.136
  H      157.878     586.754    -163.706
  P      160.644     587.309    -163.808
  C      160.300     588.984    -161.866
  O      160.113     588.721    -163.247
  C      160.180     590.483    -161.598
  O      161.216     591.163    -162.354
  C      158.823     591.085    -162.002
  O      158.280     591.863    -160.928
  C      159.157     592.015    -163.153
  O      158.340     593.180    -163.180
  C      160.622     592.347    -162.899
  N      163.053     596.206    -165.176
  C      162.816     595.945    -163.873
  N      162.250     594.853    -163.325
  C      161.938     593.953    -164.274
  C      162.141     594.066    -165.639
  C      162.709     595.271    -166.091
  N      162.900     595.558    -167.424
  N      161.688     592.941    -166.299
  C      161.179     592.174    -165.351
  N      161.298     592.756    -164.114
  O      160.123     587.283    -165.324
  O      162.116     587.093    -163.730
  H      158.719     593.786    -163.844
  H      160.870     587.055    -165.908
  H      163.119     596.725    -163.174
  H      160.681     591.228    -165.508
  H      160.735     593.151    -162.159
  H      159.028     591.476    -164.097
  H      158.097     590.324    -162.301
  H      160.380     590.666    -160.536
  H      161.298     588.646    -161.559
  H      163.203     596.488    -167.665
  H      162.544     594.911    -168.112
  H      159.551     588.432    -161.291
  P      157.355     591.070    -159.874
  C      158.723     591.555    -157.721
  O      158.292     590.583    -158.662
  O      156.995     589.720    -160.654
  O      156.129     591.814    -159.473
  H      156.026     589.616    -160.709
  H      159.334     591.086    -156.979
  H      157.870     592.000    -157.252
  H      159.289     592.311    -158.223

 6  7  8  9  10  11  12  13  14  15  25  28  32  33  34  35 0
 6-311+G(2d,p)
 ****
 36  39  40 0
 6-311+G(2d,p)
 ****
 1  2  3  4  5  16  17  18  19  20  21  22  23  24 0
 3-21G
 ****
 26  27  29  30  31  37  38  41  42  43  44  45  46  47  48 0
 3-21G
 ****


