%nproc=1
%NoSave
%Mem=1900MB
#P OB98/GEN NMR

erre ene a

0 1
  C      -40.118    -123.475      -5.826
  O      -38.734    -123.377      -6.100
  H      -40.533    -122.468      -5.745
  H      -40.273    -123.996      -4.879
  H      -40.634    -124.006      -6.633
  P      -37.964    -124.727      -6.490
  C      -36.248    -124.798      -4.538
  O      -36.468    -124.579      -5.924
  C      -35.301    -123.733      -3.985
  O      -35.932    -122.430      -4.137
  C      -34.966    -123.910      -2.497
  O      -33.606    -123.511      -2.292
  C      -35.885    -122.911      -1.818
  O      -35.437    -122.495      -0.535
  C      -35.896    -121.780      -2.851
  N      -37.035    -120.879      -2.685
  C      -36.928    -119.887      -1.714
  O      -35.920    -119.662      -1.048
  N      -38.056    -119.130      -1.519
  C      -39.249    -119.279      -2.164
  O      -40.228    -118.582      -1.930
  C      -39.301    -120.348      -3.170
  C      -38.210    -121.089      -3.378
  O      -37.776    -124.588      -8.073
  O      -38.652    -125.994      -6.103
  H      -38.539    -124.975      -8.542
  H      -34.629    -121.958      -0.667
  H      -37.996    -118.408      -0.820
  H      -40.235    -120.504      -3.693
  H      -38.221    -121.900      -4.100
  H      -34.962    -121.208      -2.799
  H      -36.885    -123.344      -1.703
  H      -35.114    -124.927      -2.122
  H      -34.389    -123.722      -4.593
  H      -35.797    -125.785      -4.394
  H      -37.208    -124.768      -4.012
  P      -32.683    -124.473      -1.396
  C      -31.290    -122.679      -0.091
  O      -31.336    -123.649      -1.128
  O      -32.267    -125.584      -2.467
  O      -33.384    -124.990      -0.185
  H      -32.146    -125.223      -3.363
  H      -30.317    -122.234      -0.062
  H      -31.495    -123.150       0.847
  H      -32.023    -121.922      -0.278

 6  7  8  9  10  11  12  13  14  15  16  27  31  32  33  34  35 0
 6-311+G(2d,p)
 ****
 36  37 0
 6-311+G(2d,p)
 ****
 1  2  3  4  5  17  18  19  20  21  22  23  24  25 0
 3-21G
 ****
 26  28  29  30  38  39  40  41  42  43  44  45 0
 3-21G
 ****


