%nproc=1
%NoSave
%Mem=1900MB
#P OB98/GEN NMR

erre ene a

0 1
  C     -140.501      94.993    -405.730
  O     -139.184      94.662    -405.323
  P     -138.520      95.211    -403.979
  C     -137.515      93.070    -402.906
  O     -137.264      94.273    -403.618
  C     -136.261      92.180    -402.767
  O     -135.827      91.754    -404.073
  C     -135.105      93.003    -402.175
  O     -135.001      93.185    -400.774
  C     -133.847      92.458    -402.853
  O     -133.161      91.500    -402.033
  C     -134.396      91.779    -404.113
  N     -130.489      93.430    -406.920
  C     -130.487      92.555    -405.845
  N     -129.264      92.233    -405.351
  N     -131.573      92.063    -405.303
  C     -132.711      92.558    -405.850
  C     -132.845      93.405    -406.921
  C     -131.637      93.908    -407.536
  O     -131.599      94.749    -408.430
  N     -134.163      93.751    -407.151
  C     -134.825      93.127    -406.189
  N     -133.982      92.418    -405.356
  O     -139.456      95.613    -402.880
  O     -137.799      96.558    -404.504
  H     -132.392      91.181    -402.538
  H     -137.843      97.219    -403.783
  H     -129.624      93.837    -407.248
  H     -135.887      93.186    -406.043
  H     -134.058      90.734    -404.169
  H     -133.133      93.266    -403.057
  H     -128.424      92.703    -405.648
  H     -135.211      94.023    -402.567
  H     -129.233      91.736    -404.467
  H     -136.484      91.273    -402.208
  H     -138.301      92.533    -403.440
  H     -137.900      93.303    -401.915
  P     -134.099      94.262    -400.020
  C     -135.527      94.208    -397.901
  O     -134.232      94.021    -398.449
  O     -134.877      95.646    -400.246
  O     -132.692      94.378    -400.522
  H     -134.250      96.402    -400.134
  H     -135.453      94.315    -396.816
  H     -136.138      93.328    -398.120
  H     -136.001      95.104    -398.316
  H     -140.720      94.507    -406.658
  H     -140.580      96.053    -405.855
  H     -141.197      94.669    -404.985

 3  4  5  6  7  8  9  10  11  12  23  26  30  31 0
 6-311+G(2d,p)
 ****
 33  35  36  37  38 0
 6-311+G(2d,p)
 ****
 1  2  13  14  15  16  17  18  19  20  21  22  24  25 0
 3-21G
 ****
 27  28  29  32  34  39  40  41  42  43  44  45  46  47  48  49 0
 3-21G
 ****


