%nproc=1
%NoSave
%Mem=1900MB
#P OB98/GEN NMR

erre ene a

0 1
  C     -442.270    -122.655    -790.509
  O     -441.993    -124.038    -790.362
  H     -443.107    -122.537    -791.202
  H     -441.407    -122.129    -790.930
  H     -442.541    -122.218    -789.545
  P     -440.697    -124.466    -789.518
  C     -442.098    -126.344    -788.412
  O     -440.921    -126.005    -789.142
  C     -442.215    -127.857    -788.277
  O     -442.373    -128.464    -789.577
  C     -440.980    -128.507    -787.667
  O     -440.942    -128.294    -786.265
  C     -441.164    -129.947    -788.101
  O     -442.099    -130.637    -787.266
  C     -441.724    -129.764    -789.535
  N     -440.695    -129.879    -790.561
  C     -440.924    -130.825    -791.567
  O     -441.961    -131.508    -791.549
  N     -439.977    -130.983    -792.540
  C     -438.906    -130.262    -792.537
  N     -438.008    -130.475    -793.533
  C     -438.621    -129.242    -791.508
  C     -439.556    -129.096    -790.557
  O     -440.328    -123.591    -788.356
  O     -439.536    -124.523    -790.621
  H     -441.856    -130.425    -786.350
  H     -439.095    -123.652    -790.701
  H     -437.725    -128.653    -791.542
  H     -439.431    -128.368    -789.758
  H     -442.507    -130.509    -789.737
  H     -440.224    -130.494    -788.073
  H     -440.078    -128.119    -788.135
  H     -443.115    -128.085    -787.684
  H     -438.238    -131.193    -794.214
  H     -442.945    -125.940    -788.967
  H     -437.184    -129.909    -793.680
  H     -442.084    -125.877    -787.420
  P     -439.695    -127.539    -785.590
  C     -440.965    -126.093    -783.863
  O     -440.153    -127.249    -784.069
  O     -439.175    -126.363    -786.342
  O     -438.614    -128.712    -785.408
  H     -438.202    -128.946    -786.281
  H     -441.204    -126.005    -782.824
  H     -441.868    -126.186    -784.430
  H     -440.432    -125.221    -784.181

 6  7  8  9  10  11  12  13  14  15  16  26  30  31  32  33  35 0
 6-311+G(2d,p)
 ****
 37  38 0
 6-311+G(2d,p)
 ****
 1  2  3  4  5  17  18  19  20  21  22  23  24  25 0
 3-21G
 ****
 27  28  29  34  36  39  40  41  42  43  44  45  46 0
 3-21G
 ****


