%nproc=1
%NoSave
%Mem=1900MB
#P OB98/GEN NMR

erre ene a

0 1
  C      167.095     324.710      24.653
  O      167.513     323.412      25.097
  P      168.866     323.150      25.921
  C      170.509     322.806      23.949
  O      170.102     323.647      25.022
  C      171.850     323.265      23.374
  O      171.711     324.564      22.749
  C      172.958     323.463      24.398
  O      173.475     322.236      24.881
  C      173.961     324.293      23.594
  O      174.806     323.457      22.789
  C      173.040     325.135      22.690
  N      173.020     326.542      23.052
  C      174.239     327.221      22.994
  O      175.276     326.616      22.728
  N      174.251     328.570      23.254
  C      173.166     329.163      23.642
  N      173.235     330.501      23.869
  C      171.890     328.453      23.849
  C      171.888     327.159      23.533
  O      169.010     321.751      26.419
  O      168.828     324.195      27.134
  H      169.354     323.847      27.880
  H      175.454     323.044      23.394
  H      171.018     328.976      24.214
  H      170.985     326.565      23.640
  H      173.348     325.035      21.640
  H      174.617     324.887      24.239
  H      172.579     324.065      25.232
  H      172.161     322.539      22.609
  H      174.123     330.960      23.709
  H      169.747     322.861      23.158
  H      172.444     331.062      24.153
  H      170.565     321.771      24.301
  P      173.167     321.874      26.414
  C      174.898     323.426      27.568
  O      173.536     323.156      27.301
  O      174.305     320.810      26.784
  O      171.805     321.316      26.658
  H      173.932     320.115      27.356
  H      175.018     324.500      27.727
  H      175.544     323.116      26.741
  H      175.197     322.901      28.477
  H      166.166     324.626      24.128
  H      167.837     325.120      24.000
  H      166.970     325.353      25.499

 3  4  5  6  7  8  9  10  11  12  13  24  27  28  29  30  32 0
 6-311+G(2d,p)
 ****
 34  35 0
 6-311+G(2d,p)
 ****
 1  2  14  15  16  17  18  19  20  21  22  23  25  26 0
 3-21G
 ****
 31  33  36  37  38  39  40  41  42  43  44  45  46 0
 3-21G
 ****


