%nproc=1
%NoSave
%Mem=1900MB
#P OB98/GEN NMR

erre ene a

0 1
  C      173.853     166.993     215.623
  O      174.657     165.833     215.698
  H      173.057     166.822     214.894
  H      174.455     167.842     215.292
  H      173.401     167.213     216.595
  P      175.747     165.769     216.872
  C      174.096     163.990     217.804
  O      175.052     164.997     218.098
  C      174.517     162.667     218.443
  O      175.696     162.172     217.747
  C      174.876     162.780     219.930
  O      174.449     161.582     220.589
  C      176.392     162.825     219.915
  O      176.993     162.413     221.135
  C      176.697     161.885     218.744
  N      178.042     162.074     218.207
  C      179.110     161.663     218.999
  O      179.001     161.077     220.075
  N      180.357     161.952     218.505
  C      180.630     162.613     217.345
  O      181.769     162.860     216.967
  C      179.462     163.030     216.557
  C      178.242     162.748     217.019
  O      175.818     167.284     217.380
  O      177.083     165.233     216.478
  H      176.493     167.780     216.880
  H      176.597     162.948     221.852
  H      181.141     161.662     219.067
  H      179.641     163.567     215.635
  H      177.358     163.060     216.473
  H      176.565     160.841     219.049
  H      176.732     163.843     219.697
  H      174.443     163.651     220.431
  H      173.720     161.931     218.287
  H      174.031     163.857     216.719
  H      173.116     164.302     218.181
  P      173.137     161.676     221.511
  C      171.755     161.160     219.345
  O      171.925     161.966     220.503
  O      173.381     163.071     222.253
  O      172.972     160.498     222.410
  H      173.824     163.729     221.690
  H      170.901     161.499     218.797
  H      171.609     160.141     219.638
  H      172.627     161.233     218.729

 6  7  8  9  10  11  12  13  14  15  16  27  31  32  33  34  35 0
 6-311+G(2d,p)
 ****
 36  37 0
 6-311+G(2d,p)
 ****
 1  2  3  4  5  17  18  19  20  21  22  23  24  25 0
 3-21G
 ****
 26  28  29  30  38  39  40  41  42  43  44  45 0
 3-21G
 ****


