%nproc=1
%NoSave
%Mem=1900MB
#P OB98/GEN NMR

erre ene a

0 1
  C     -334.632     985.323    -847.793
  O     -335.452     986.291    -848.439
  P     -335.275     987.843    -848.104
  C     -335.448     989.200    -845.905
  O     -335.844     988.037    -846.602
  C     -335.437     988.959    -844.393
  O     -334.423     988.000    -844.028
  C     -335.138     990.204    -843.559
  O     -336.296     991.035    -843.478
  C     -334.734     989.576    -842.229
  O     -335.872     989.233    -841.430
  C     -333.967     988.317    -842.692
  N     -332.521     988.470    -842.631
  C     -331.927     988.143    -841.396
  O     -332.618     987.781    -840.440
  N     -330.551     988.297    -841.265
  C     -329.866     988.739    -842.269
  N     -328.518     988.850    -842.083
  C     -330.454     989.126    -843.565
  C     -331.775     988.974    -843.669
  O     -335.822     988.790    -849.111
  O     -333.684     988.003    -847.896
  H     -336.381     990.053    -841.308
  H     -333.205     987.975    -848.750
  H     -329.836     989.503    -844.354
  H     -332.288     989.234    -844.591
  H     -334.256     987.452    -842.067
  H     -334.112     990.253    -841.633
  H     -334.294     990.752    -844.018
  H     -336.426     988.543    -844.115
  H     -328.175     988.611    -841.169
  H     -336.134     990.014    -846.141
  H     -327.888     989.237    -842.769
  H     -334.426     989.494    -846.247
  P     -336.149     992.558    -843.045
  C     -335.191     993.754    -840.966
  O     -335.815     992.593    -841.463
  O     -337.247     993.471    -843.481
  O     -334.745     993.022    -843.701
  H     -334.854     993.901    -844.113
  H     -335.335     993.800    -839.884
  H     -335.622     994.645    -841.409
  H     -334.128     993.720    -841.198
  H     -334.893     984.345    -848.141
  H     -334.783     985.377    -846.735
  H     -333.604     985.519    -848.017

 3  4  5  6  7  8  9  10  11  12  13  23  27  28  29  30  32 0
 6-311+G(2d,p)
 ****
 34  35 0
 6-311+G(2d,p)
 ****
 1  2  14  15  16  17  18  19  20  21  22  24  25  26 0
 3-21G
 ****
 31  33  36  37  38  39  40  41  42  43  44  45  46 0
 3-21G
 ****


