%nproc=1
%NoSave
%Mem=1900MB
#P OB98/GEN NMR

erre ene a

0 1
  C     -313.166    -772.441     -59.108
  O     -312.836    -773.017     -60.356
  H     -312.455    -771.647     -58.893
  H     -313.097    -773.192     -58.319
  H     -314.170    -772.014     -59.134
  P     -313.741    -774.223     -60.905
  C     -314.042    -773.320     -63.316
  O     -314.643    -773.552     -62.050
  C     -314.336    -771.907     -63.796
  O     -313.731    -770.919     -62.935
  C     -313.803    -771.565     -65.185
  O     -314.537    -772.178     -66.243
  C     -313.949    -770.064     -65.172
  O     -315.330    -769.711     -65.353
  C     -313.471    -769.736     -63.731
  N     -312.051    -769.382     -63.687
  C     -311.738    -768.022     -63.875
  O     -312.625    -767.207     -64.093
  N     -310.417    -767.641     -63.855
  C     -309.475    -768.544     -63.696
  N     -308.191    -768.114     -63.677
  C     -309.773    -769.984     -63.505
  C     -311.059    -770.320     -63.515
  O     -314.493    -775.006     -59.874
  O     -312.732    -775.118     -61.771
  H     -315.472    -768.864     -64.896
  H     -313.239    -775.893     -62.130
  H     -308.959    -770.689     -63.394
  H     -311.344    -771.360     -63.383
  H     -314.060    -768.915     -63.303
  H     -313.379    -769.568     -65.954
  H     -312.732    -771.824     -65.262
  H     -315.422    -771.768     -63.738
  H     -308.032    -767.113     -63.827
  H     -314.440    -774.067     -64.024
  H     -307.400    -768.745     -63.642
  H     -312.956    -773.452     -63.248
  P     -314.250    -773.741     -66.531
  C     -316.762    -774.293     -66.976
  O     -315.612    -774.516     -66.177
  O     -313.263    -774.153     -65.352
  O     -313.703    -774.043     -67.886
  H     -312.327    -774.138     -65.671
  H     -317.574    -774.883     -66.605
  H     -316.553    -774.571     -67.988
  H     -317.027    -773.257     -66.938

 6  7  8  9  10  11  12  13  14  15  16  26  30  31  32  33  35 0
 6-311+G(2d,p)
 ****
 37  38 0
 6-311+G(2d,p)
 ****
 1  2  3  4  5  17  18  19  20  21  22  23  24  25 0
 3-21G
 ****
 27  28  29  34  36  39  40  41  42  43  44  45  46 0
 3-21G
 ****


