%nproc=1
%NoSave
%Mem=1900MB
#P OB98/GEN NMR

erre ene a

0 1
  C      444.814     870.060      -8.751
  O      445.935     869.542      -9.434
  H      445.068     870.174      -7.693
  H      443.961     869.380      -8.837
  H      444.546     871.046      -9.158
  P      445.757     869.268     -11.006
  C      446.460     871.576     -11.909
  O      446.843     870.219     -11.702
  C      447.426     872.265     -12.875
  O      446.946     873.613     -13.117
  C      448.847     872.372     -12.336
  O      449.781     872.168     -13.415
  C      448.952     873.805     -11.839
  O      450.290     874.288     -11.841
  C      448.016     874.527     -12.822
  N      446.645     879.340     -13.836
  C      447.016     878.324     -14.638
  N      447.355     877.061     -14.279
  C      447.232     876.892     -12.950
  C      446.877     877.836     -12.005
  C      446.582     879.135     -12.496
  N      446.242     880.182     -11.689
  N      446.914     877.298     -10.735
  C      447.274     876.039     -10.914
  N      447.494     875.754     -12.238
  O      444.359     869.391     -11.527
  O      446.416     867.817     -11.160
  H      450.839     873.662     -11.317
  H      447.254     867.749     -10.665
  H      447.052     878.545     -15.697
  H      447.404     875.305     -10.121
  H      448.521     874.799     -13.750
  H      448.563     873.867     -10.818
  H      449.060     871.649     -11.538
  H      447.389     871.745     -13.841
  H      446.453     872.114     -10.951
  H      446.026     881.069     -12.120
  H      446.160     880.039     -10.689
  H      445.440     871.577     -12.314
  P      450.862     870.994     -13.275
  C      449.517     869.074     -14.369
  O      450.637     869.945     -14.472
  O      451.009     870.386     -11.921
  O      452.216     871.729     -13.731
  H      452.958     871.396     -13.174
  H      449.484     868.432     -15.225
  H      448.618     869.653     -14.323
  H      449.606     868.482     -13.482

 6  7  8  9  10  11  12  13  14  15  25  28  32  33  34  35 0
 6-311+G(2d,p)
 ****
 36  39  40 0
 6-311+G(2d,p)
 ****
 1  2  3  4  5  16  17  18  19  20  21  22  23  24 0
 3-21G
 ****
 26  27  29  30  31  37  38  41  42  43  44  45  46  47 0
 3-21G
 ****
 48 0
 3-21G
 ****


