%nproc=1
%NoSave
%Mem=1900MB
#P OB98/GEN NMR

erre ene a

0 1
  C       73.226     167.208    -111.998
  O       72.297     166.336    -111.341
  P       72.388     166.020    -109.771
  C       70.087     166.918    -109.040
  O       71.499     167.095    -108.977
  C       69.394     167.432    -107.775
  O       69.640     166.550    -106.662
  C       69.847     168.817    -107.324
  O       69.234     169.824    -108.106
  C       69.435     168.801    -105.855
  O       68.034     169.099    -105.722
  C       69.713     167.345    -105.463
  N       72.459     168.380    -101.275
  C       71.183     168.668    -101.612
  N       70.524     168.361    -102.751
  C       71.315     167.661    -103.581
  C       72.637     167.297    -103.375
  C       73.218     167.688    -102.156
  N       74.522     167.406    -101.821
  N       73.129     166.608    -104.462
  C       72.115     166.539    -105.303
  N       70.999     167.162    -104.816
  O       73.782     165.877    -109.253
  O       71.573     164.654    -109.584
  H       67.864     169.921    -106.215
  H       71.922     164.166    -108.815
  H       70.615     169.220    -100.869
  H       72.140     166.052    -106.269
  H       68.947     166.956    -104.783
  H       69.983     169.534    -105.254
  H       70.938     168.895    -107.393
  H       68.312     167.427    -107.960
  H       69.878     165.849    -109.164
  H       74.873     167.751    -100.942
  H       75.108     166.932    -102.492
  H       69.708     167.455    -109.917
  P       70.131     170.913    -108.862
  C       68.887     170.838    -111.103
  O       70.095     170.554    -110.424
  O       71.493     171.135    -108.292
  O       69.247     172.248    -108.789
  H       69.838     173.024    -108.781
  H       68.161     170.043    -110.904
  H       69.089     170.873    -112.177
  H       68.475     171.799    -110.787
  H       72.979     167.274    -113.037
  H       74.217     166.819    -111.891
  H       73.175     168.181    -111.556

 3  4  5  6  7  8  9  10  11  12  22  25  29  30  31  32 0
 6-311+G(2d,p)
 ****
 33  36  37 0
 6-311+G(2d,p)
 ****
 1  2  13  14  15  16  17  18  19  20  21  23  24  26 0
 3-21G
 ****
 27  28  34  35  38  39  40  41  42  43  44  45  46  47  48 0
 3-21G
 ****


