%nproc=1
%NoSave
%Mem=1900MB
#P OB98/GEN NMR

erre ene a

0 1
  C     -195.729    -254.130     327.590
  O     -195.371    -252.802     327.910
  H     -195.740    -254.239     326.501
  H     -196.726    -254.355     327.976
  H     -195.001    -254.830     328.005
  P     -195.252    -252.443     329.469
  C     -192.657    -252.286     329.584
  O     -193.829    -253.006     329.952
  C     -191.613    -252.398     330.689
  O     -192.167    -251.898     331.927
  C     -191.171    -253.827     330.987
  O     -190.223    -254.295     330.043
  C     -190.601    -253.673     332.394
  O     -189.249    -253.198     332.367
  C     -191.520    -252.608     333.007
  N     -192.235    -254.837     337.536
  C     -191.138    -254.306     336.953
  N     -191.035    -253.711     335.746
  C     -192.228    -253.687     335.126
  C     -193.430    -254.195     335.594
  C     -193.409    -254.793     336.863
  N     -194.519    -255.368     337.441
  N     -194.425    -254.024     334.652
  C     -193.838    -253.412     333.641
  N     -192.513    -253.186     333.890
  O     -196.305    -253.442     330.146
  O     -195.527    -251.018     329.818
  H     -188.935    -253.197     333.293
  H     -197.160    -252.987     330.262
  H     -190.221    -254.371     337.532
  H     -194.325    -253.127     332.716
  H     -190.961    -251.867     333.592
  H     -190.602    -254.624     332.926
  H     -192.040    -254.493     331.026
  H     -190.754    -251.773     330.422
  H     -192.916    -251.229     329.437
  H     -192.272    -252.692     328.644
  H     -194.424    -255.801     338.343
  H     -195.371    -255.434     336.903
  P     -190.449    -255.738     329.385
  C     -191.436    -254.665     327.229
  O     -191.616    -255.593     328.291
  O     -191.136    -256.577     330.562
  O     -189.206    -256.394     328.883
  H     -190.476    -257.145     331.003
  H     -192.293    -254.685     326.589
  H     -190.565    -254.931     326.667
  H     -191.314    -253.681     327.632

 6  7  8  9  10  11  12  13  14  15  25  28  32  33  34  35 0
 6-311+G(2d,p)
 ****
 36  37  40 0
 6-311+G(2d,p)
 ****
 1  2  3  4  5  16  17  18  19  20  21  22  23  24 0
 3-21G
 ****
 26  27  29  30  31  38  39 41  42  43  44  45  46  47  48 0
 3-21G
 ****


