%nproc=1
%NoSave
%Mem=1900MB
#P OB98/GEN NMR

erre ene a

0 1
  C      108.432    -251.184    -681.933
  O      107.844    -249.935    -681.555
  P      107.373    -248.969    -682.757
  C      108.808    -246.866    -682.198
  O      108.584    -247.966    -683.086
  C      109.545    -245.718    -682.887
  O      110.910    -246.129    -683.171
  C      108.922    -245.251    -684.204
  O      109.064    -243.825    -684.306
  C      109.830    -245.874    -685.255
  O      109.774    -245.173    -686.498
  C      111.188    -245.785    -684.543
  N      114.218    -246.682    -688.504
  C      113.413    -245.583    -688.226
  N      113.416    -244.598    -689.143
  N      112.693    -245.472    -687.139
  C      112.820    -246.512    -686.290
  C      113.587    -247.654    -686.447
  C      114.348    -247.789    -687.675
  O      115.034    -248.763    -687.998
  N      113.449    -248.500    -685.368
  C      112.609    -247.861    -684.571
  N      112.187    -246.675    -685.091
  O      106.262    -248.046    -682.075
  O      106.824    -249.712    -683.939
  H      110.398    -245.621    -687.111
  H      105.424    -248.105    -682.567
  H      114.740    -246.726    -689.364
  H      112.246    -248.254    -683.613
  H      111.586    -244.760    -684.566
  H      109.535    -246.914    -685.434
  H      114.001    -244.587    -689.974
  H      107.873    -245.531    -684.349
  H      112.876    -243.759    -688.957
  H      109.600    -244.878    -682.183
  H      109.399    -247.215    -681.340
  H      107.839    -246.532    -681.826
  P      107.703    -242.962    -684.264
  C      107.762    -242.803    -686.871
  O      107.023    -243.152    -685.703
  O      108.233    -241.456    -684.260
  O      106.836    -243.262    -683.067
  H      107.576    -240.864    -683.834
  H      108.831    -242.621    -686.636
  H      107.348    -241.889    -687.295
  H      107.691    -243.615    -687.580
  H      108.701    -251.732    -681.054
  H      109.307    -251.003    -682.522
  H      107.728    -251.751    -682.505

 3  4  5  6  7  8  9  10  11  12  23  26  30  31  33  0
 6-311+G(2d,p)
 ****
 35  36  37  38 0
 6-311+G(2d,p)
 ****
 1  2  13  14  15  16  17  18  19  20  21  22  24  25  27  28  29 0
 3-21G
 ****
 32  34  39  40  41  42  43  44  45  46  47  48  49 0
 3-21G
 ****


