%nproc=1
%NoSave
%Mem=1900MB
#P OB98/GEN NMR

erre ene a

0 1
  C     -159.822     -65.090     324.894
  O     -160.617     -65.955     324.080
  P     -162.209     -65.746     324.143
  C     -162.454     -66.949     326.426
  O     -162.843     -66.904     325.057
  C     -163.240     -68.014     327.205
  O     -164.670     -67.812     327.063
  C     -162.936     -69.446     326.755
  O     -163.022     -70.283     327.910
  C     -164.099     -69.766     325.827
  O     -164.264     -71.172     325.685
  C     -165.241     -69.030     326.550
  N     -166.390     -68.774     325.683
  C     -166.878     -69.850     324.938
  O     -166.304     -70.943     324.970
  N     -167.981     -69.660     324.141
  C     -168.514     -68.482     324.051
  N     -169.603     -68.351     323.247
  C     -167.994     -67.300     324.780
  C     -166.950     -67.521     325.569
  O     -162.689     -66.124     322.662
  O     -162.613     -64.355     324.504
  H     -163.385     -71.569     325.523
  H     -163.272     -65.428     322.310
  H     -168.465     -66.335     324.665
  H     -166.498     -66.725     326.141
  H     -165.597     -69.623     327.409
  H     -163.926     -69.329     324.838
  H     -161.955     -69.558     326.287
  H     -162.995     -67.903     328.269
  H     -169.932     -69.185     322.773
  H     -162.624     -65.974     326.885
  H     -170.092     -67.486     323.105
  H     -161.379     -67.131     326.484
  P     -161.717     -70.457     328.820
  C     -161.731     -72.996     328.401
  O     -161.802     -71.962     329.375
  O     -162.132     -69.626     330.134
  O     -160.405     -70.007     328.279
  H     -161.379     -69.591     330.748
  H     -161.673     -73.955     328.918
  H     -160.843     -72.871     327.777
  H     -162.630     -72.982     327.783
  H     -158.787     -65.329     324.763
  H     -160.091     -65.220     325.921
  H     -159.993     -64.074     324.607

 3  4  5  6  7  8  9  10  11  12  13  21  23  27  28  29  30  32 0
 6-311+G(2d,p)
 ****
 34  35 0
 6-311+G(2d,p)
 ****
 1  2  14  15  16  17  18  19  20  22  24  25  26 0
 3-21G
 ****
 31  33  36  37  38  39  40  41  42  43  44  45  46 0
 3-21G
 ****


