%nproc=1
%NoSave
%Mem=1900MB
#P OB98/GEN NMR

erre ene a

0 1
  C      256.070     342.435    -186.605
  O      257.135     341.622    -186.164
  H      255.349     342.543    -185.791
  H      255.569     341.971    -187.459
  H      256.436     343.429    -186.882
  P      258.332     341.352    -187.204
  C      259.990     340.599    -185.341
  O      259.248     340.233    -186.498
  C      260.884     339.442    -184.894
  O      260.084     338.466    -184.184
  C      261.577     338.723    -186.056
  O      262.936     338.453    -185.706
  C      260.793     337.425    -186.208
  O      261.580     336.388    -186.788
  C      260.320     337.174    -184.772
  N      259.112     336.345    -184.741
  C      259.257     335.036    -184.278
  O      260.367     334.617    -183.933
  N      258.162     334.211    -184.269
  C      257.028     334.637    -184.736
  N      255.982     333.766    -184.720
  C      256.839     335.996    -185.279
  C      257.910     336.791    -185.244
  O      259.209     342.685    -187.092
  O      257.905     341.023    -188.596
  H      262.297     336.161    -186.158
  H      259.865     342.750    -187.829
  H      255.882     336.304    -185.669
  H      257.863     337.808    -185.622
  H      261.101     336.671    -184.187
  H      259.931     337.600    -186.865
  H      261.555     339.295    -186.980
  H      261.619     339.827    -184.176
  H      256.155     332.838    -184.352
  H      259.288     340.856    -184.540
  H      255.066     333.980    -185.085
  H      260.610     341.471    -185.574
  P      264.043     339.300    -186.506
  C      265.254     339.906    -184.293
  O      265.367     339.348    -185.595
  O      263.484     340.798    -186.453
  O      264.265     338.823    -187.906
  H      263.033     341.027    -187.288
  H      266.206     339.872    -183.806
  H      264.543     339.344    -183.725
  H      264.928     340.922    -184.368

 6  7  8  9  10  11  12  13  14  15  16  26  30  31  32  33  35 0
 6-311+G(2d,p)
 ****
 37  38 0
 6-311+G(2d,p)
 ****
 1  2  3  4  5  17  18  19  20  21  22  23  24  25 0
 3-21G
 ****
 27  28  29  34  36  39  40  41  42  43  44  45  46 0
 3-21G
 ****


