%nproc=1
%NoSave
%Mem=1900MB
#P OB98/GEN NMR

erre ene a

0 1
  C     -440.489    -112.767      88.104
  O     -441.362    -113.824      88.511
  P     -440.732    -115.294      88.647
  C     -441.252    -116.126      91.062
  O     -440.311    -115.531      90.175
  C     -442.049    -115.043      91.798
  O     -442.703    -114.152      90.879
  C     -443.160    -115.612      92.665
  O     -442.633    -116.132      93.875
  C     -444.063    -114.392      92.863
  O     -443.676    -113.631      94.020
  C     -443.819    -113.575      91.568
  N     -444.998    -113.517      90.720
  C     -445.833    -112.404      90.895
  O     -445.554    -111.559      91.752
  N     -446.950    -112.297      90.117
  C     -447.237    -113.222      89.261
  N     -448.371    -113.069      88.527
  C     -446.407    -114.428      89.058
  C     -445.305    -114.512      89.819
  O     -439.318    -115.160      87.896
  O     -441.572    -116.375      88.046
  H     -444.418    -113.002      94.183
  H     -439.084    -115.999      87.468
  H     -446.685    -115.184      88.348
  H     -444.639    -115.366      89.745
  H     -443.532    -112.547      91.822
  H     -445.104    -114.686      93.006
  H     -443.706    -116.390      92.123
  H     -441.347    -114.464      92.420
  H     -448.926    -112.230      88.688
  H     -440.740    -116.769      91.776
  H     -448.685    -113.734      87.835
  H     -441.917    -116.772      90.479
  P     -442.221    -117.674      93.907
  C     -439.902    -117.245      94.905
  O     -440.629    -117.693      93.779
  O     -442.677    -118.174      92.443
  O     -442.817    -118.519      94.986
  H     -442.571    -119.132      92.371
  H     -438.848    -117.497      94.766
  H     -440.261    -117.732      95.813
  H     -439.996    -116.158      95.001
  H     -441.038    -111.850      88.055
  H     -440.083    -112.991      87.140
  H     -439.693    -112.669      88.812

 3  4  5  6  7  8  9  10  11  12  13  21  23  27  28  29  30  32 0
 6-311+G(2d,p)
 ****
 34  35 0
 6-311+G(2d,p)
 ****
 1  2  14  15  16  17  18  19  20  22  24  25  26 0
 3-21G
 ****
 31  33  36  37  38  39  40  41  42  43  44  45  46 0
 3-21G
 ****


