%nproc=1
%NoSave
%Mem=1900MB
#P OB98/GEN NMR

erre ene a

0 1
  C     -129.000     400.854     -78.958
  O     -128.393     401.962     -78.320
  P     -129.266     403.307     -78.179
  C     -130.213     405.073     -79.829
  O     -129.428     403.902     -79.658
  C     -130.899     405.091     -81.198
  O     -131.822     403.983     -81.282
  C     -131.675     406.376     -81.496
  O     -131.519     406.681     -82.885
  C     -133.118     405.986     -81.240
  O     -134.029     406.811     -81.960
  C     -133.106     404.508     -81.670
  N     -134.203     403.747     -81.074
  C     -135.275     403.421     -81.907
  O     -135.304     403.839     -83.059
  N     -136.312     402.685     -81.392
  C     -136.322     402.383     -80.127
  N     -137.371     401.640     -79.671
  C     -135.272     402.815     -79.183
  C     -134.239     403.472     -79.728
  O     -128.246     404.321     -77.478
  O     -130.532     403.146     -77.397
  H     -133.874     406.671     -82.920
  H     -128.720     404.948     -76.902
  H     -135.347     402.577     -78.136
  H     -133.409     403.807     -79.118
  H     -133.187     404.427     -82.762
  H     -133.344     406.073     -80.166
  H     -131.338     407.228     -80.891
  H     -130.126     404.931     -81.962
  H     -138.083     401.376     -80.329
  H     -129.574     405.952     -79.757
  H     -137.462     401.369     -78.699
  H     -130.960     405.130     -79.026
  P     -130.838     408.076     -83.276
  C     -131.512     410.542     -83.018
  O     -131.881     409.195     -82.784
  O     -131.047     408.099     -84.862
  O     -129.399     408.286     -82.922
  H     -130.621     408.895     -85.241
  H     -132.365     411.185     -82.766
  H     -131.251     410.694     -84.061
  H     -130.667     410.810     -82.374
  H     -128.312     400.035     -78.982
  H     -129.270     401.122     -79.958
  H     -129.877     400.567     -78.416

 3  4  5  6  7  8  9  10  11  12  13  21  23  27  28  29  30  32 0
 6-311+G(2d,p)
 ****
 34  35 0
 6-311+G(2d,p)
 ****
 1  2  14  15  16  17  18  19  20  22  24  25  26 0
 3-21G
 ****
 31  33  36  37  38  39  40  41  42  43  44  45  46 0
 3-21G
 ****


