%nproc=1
%NoSave
%Mem=1900MB
#P OB98/GEN NMR

erre ene a

0 1
  C        6.392    -116.381     136.237
  O        7.347    -116.942     135.347
  P        7.136    -116.704     133.774
  C        6.035    -118.965     133.081
  O        7.195    -118.151     133.078
  C        6.072    -119.962     131.918
  O        4.884    -120.792     131.980
  C        6.104    -119.322     130.522
  O        6.862    -120.198     129.680
  C        4.644    -119.340     130.104
  O        4.482    -119.252     128.692
  C        4.195    -120.665     130.717
  N       -0.329    -120.583     128.449
  C        0.936    -120.422     127.910
  N        1.000    -120.277     126.566
  N        2.033    -120.406     128.618
  C        1.810    -120.577     129.946
  C        0.608    -120.707     130.603
  C       -0.595    -120.763     129.803
  O       -1.723    -120.989     130.226
  N        0.782    -120.771     131.960
  C        2.089    -120.761     132.119
  N        2.759    -120.693     130.922
  O        8.507    -116.014     133.329
  O        5.933    -115.898     133.395
  H        4.922    -118.430     128.388
  H        8.429    -115.038     133.340
  H       -1.134    -120.607     127.851
  H        2.608    -120.808     133.063
  H        4.460    -121.530     130.094
  H        4.116    -118.495     130.560
  H        0.198    -120.311     125.956
  H        6.535    -118.315     130.514
  H        1.917    -120.189     126.141
  H        6.937    -120.619     132.057
  H        5.153    -118.325     132.961
  H        5.955    -119.489     134.042
  P        8.056    -119.563     128.816
  C        6.763    -119.656     126.570
  O        7.892    -120.080     127.312
  O        9.341    -120.366     129.342
  O        8.239    -118.089     128.990
  H       10.125    -119.788     129.306
  H        6.987    -119.743     125.503
  H        6.502    -118.614     126.793
  H        5.908    -120.299     126.806
  H        6.660    -116.620     137.245
  H        5.424    -116.783     136.021
  H        6.372    -115.318     136.115

 3  4  5  6  7  8  9  10  11  12  23  26  30  31 0
 6-311+G(2d,p)
 ****
 33  35  36  37  38 0
 6-311+G(2d,p)
 ****
 1  2  13  14  15  16  17  18  19  20  21  22  24  25 0
 3-21G
 ****
 27  28  29  32  34  39  40  41  42  43  44  45  46  47  48  49 0
 3-21G
 ****


