%nproc=1
%NoSave
%Mem=1900MB
#P OB98/GEN NMR

erre ene a

0 1
  C     -218.933     225.685      60.396
  O     -217.907     225.225      59.542
  H     -219.720     224.926      60.437
  H     -219.365     226.612      60.011
  H     -218.549     225.843      61.408
  P     -216.626     226.165      59.309
  C     -216.526     228.712      58.840
  O     -217.233     227.499      58.643
  C     -217.065     229.795      57.909
  O     -216.790     229.483      56.525
  C     -218.577     229.991      57.961
  O     -219.028     230.652      59.133
  C     -218.774     230.831      56.714
  O     -218.347     232.182      56.966
  C     -217.826     230.117      55.722
  N     -218.517     229.126      54.897
  C     -219.244     229.614      53.806
  O     -219.294     230.821      53.575
  N     -219.928     228.723      53.013
  C     -219.908     227.457      53.298
  N     -220.610     226.621      52.486
  C     -219.173     226.902      54.453
  C     -218.503     227.778      55.195
  O     -215.482     225.545      58.573
  O     -216.239     226.685      60.771
  H     -218.909     232.527      57.685
  H     -215.442     227.266      60.685
  H     -219.211     225.844      54.664
  H     -217.943     227.449      56.066
  H     -217.328     230.842      55.066
  H     -219.816     230.878      56.385
  H     -219.102     229.038      57.825
  H     -216.530     230.726      58.141
  H     -221.106     227.031      51.707
  H     -215.464     228.523      58.649
  H     -220.712     225.632      52.676
  H     -216.646     229.055      59.871
  P     -220.272     229.989      59.910
  C     -222.824     229.753      59.404
  O     -221.571     230.298      59.025
  O     -220.438     230.928      61.191
  O     -220.100     228.545      60.269
  H     -220.012     230.523      61.973
  H     -223.573     230.061      58.704
  H     -223.084     230.102      60.381
  H     -222.761     228.685      59.412

 6  7  8  9  10  11  12  13  14  15  16  26  30  31  32  33  35 0
 6-311+G(2d,p)
 ****
 37  38 0
 6-311+G(2d,p)
 ****
 1  2  3  4  5  17  18  19  20  21  22  23  24  25 0
 3-21G
 ****
 27  28  29  34  36  39  40  41  42  43  44  45  46 0
 3-21G
 ****


