%nproc=1
%NoSave
%Mem=1900MB
#P OB98/GEN NMR

erre ene a

0 1
  C      -96.263    -632.375     244.283
  O      -97.324    -631.824     245.027
  H      -96.611    -632.545     243.261
  H      -95.960    -633.337     244.704
  H      -95.414    -631.687     244.256
  P      -97.116    -631.513     246.590
  C      -99.657    -631.784     246.848
  O      -98.531    -630.952     247.109
  C     -100.935    -630.950     246.690
  O     -101.201    -630.238     247.928
  C     -100.853    -629.908     245.564
  O     -102.039    -629.966     244.764
  C     -100.805    -628.580     246.308
  O     -101.280    -627.488     245.525
  C     -101.635    -628.914     247.553
  N     -101.442    -627.946     248.619
  C     -102.409    -626.933     248.719
  O     -103.356    -626.906     247.932
  N     -102.244    -625.949     249.655
  C     -101.185    -625.952     250.415
  N     -101.077    -624.938     251.309
  C     -100.134    -626.980     250.318
  C     -100.320    -627.937     249.419
  O      -95.937    -630.648     246.895
  O      -97.031    -632.955     247.289
  H     -100.583    -627.248     244.875
  H      -96.561    -632.861     248.151
  H      -99.262    -626.935     250.968
  H      -99.598    -628.745     249.282
  H     -102.702    -628.966     247.310
  H      -99.769    -628.371     246.596
  H      -99.986    -630.042     244.915
  H     -101.778    -631.638     246.534
  H     -101.817    -624.252     251.329
  H      -99.761    -632.496     247.676
  H     -100.283    -624.816     251.930
  H      -99.465    -632.329     245.916
  P     -101.891    -630.656     243.321
  C     -103.401    -629.346     241.658
  O     -103.275    -630.455     242.532
  O     -101.855    -632.217     243.664
  O     -100.668    -630.226     242.587
  H     -100.960    -632.577     243.501
  H     -104.374    -629.352     241.212
  H     -102.657    -629.409     240.892
  H     -103.268    -628.439     242.211

 6  7  8  9  10  11  12  13  14  15  16  26  30  31  32  33  35 0
 6-311+G(2d,p)
 ****
 37  38 0
 6-311+G(2d,p)
 ****
 1  2  3  4  5  17  18  19  20  21  22  23  24  25 0
 3-21G
 ****
 27  28  29  34  36  39  40  41  42  43  44  45  46 0
 3-21G
 ****


