%nproc=1
%NoSave
%Mem=1900MB
#P OB98/GEN NMR

erre ene a

0 1
  C      514.472    -114.786     147.945
  O      514.794    -116.157     147.837
  H      514.156    -114.576     148.970
  H      513.642    -114.556     147.270
  H      515.332    -114.159     147.704
  P      515.649    -116.612     146.558
  C      518.116    -116.304     145.804
  O      517.182    -116.246     146.874
  C      519.532    -116.036     146.318
  O      519.545    -114.737     146.989
  C      520.050    -117.087     147.315
  O      521.452    -117.286     147.095
  C      519.871    -116.389     148.653
  O      520.738    -116.914     149.660
  C      520.178    -114.946     148.268
  N      521.703    -111.875     151.940
  C      522.426    -112.541     150.962
  N      523.773    -112.420     151.005
  N      521.877    -113.266     150.026
  C      520.523    -113.284     150.085
  C      519.695    -112.675     150.999
  C      520.316    -111.890     152.046
  O      519.734    -111.293     152.944
  N      518.375    -112.994     150.757
  C      518.412    -113.805     149.711
  N      519.693    -114.015     149.273
  O      515.223    -115.536     145.449
  O      515.410    -118.011     146.094
  H      520.637    -116.366     150.460
  H      514.495    -115.892     144.906
  H      522.180    -111.344     152.648
  H      517.555    -114.279     149.254
  H      521.256    -114.762     148.150
  H      518.835    -116.493     149.001
  H      524.267    -111.855     151.679
  H      519.522    -118.049     147.265
  H      524.312    -112.867     150.275
  H      520.205    -115.960     145.455
  H      517.857    -115.546     145.056
  H      518.059    -117.294     145.333
  P      521.900    -118.342     145.974
  C      520.497    -119.181     143.946
  O      521.048    -118.073     144.645
  O      521.294    -119.721     146.522
  O      523.375    -118.427     145.785
  H      521.889    -120.459     146.289
  H      519.962    -118.831     143.088
  H      519.829    -119.713     144.591
  H      521.285    -119.833     143.633

 6  7  8  9  10  11  12  13  14  15  26  29  33  34 0
 6-311+G(2d,p)
 ****
 36  38  39  40  41 0
 6-311+G(2d,p)
 ****
 1  2  3  4  5  16  17  18  19  20  21  22  23  24  25 0
 3-21G
 ****
 27  28  30  31  32  35  37  42  43  44  45  46  47 0
 3-21G
 ****
 48  49 0
 3-21G
 ****


