%nproc=1
%NoSave
%Mem=1900MB
#P OB98/GEN NMR

erre ene a

0 1
  C     -158.215     912.507    -236.328
  O     -159.248     913.459    -236.562
  P     -160.070     913.989    -235.276
  C     -162.379     913.460    -236.320
  O     -161.446     913.162    -235.295
  C     -163.791     912.921    -235.956
  O     -163.754     911.469    -235.945
  C     -164.260     913.301    -234.552
  O     -164.785     914.610    -234.513
  C     -165.337     912.261    -234.306
  O     -166.551     912.671    -234.935
  C     -164.761     911.015    -235.012
  N     -165.433     907.961    -231.027
  C     -166.340     908.768    -231.688
  N     -167.618     908.740    -231.239
  N     -166.015     909.541    -232.691
  C     -164.729     909.434    -233.070
  C     -163.725     908.677    -232.486
  C     -164.089     907.858    -231.339
  O     -163.294     907.172    -230.673
  N     -162.537     908.833    -233.136
  C     -162.820     909.643    -234.134
  N     -164.123     910.065    -234.121
  O     -160.538     915.462    -235.733
  O     -159.326     914.006    -234.010
  H     -167.200     911.946    -234.826
  H     -160.690     916.023    -234.937
  H     -165.733     907.385    -230.279
  H     -162.096     909.959    -234.897
  H     -165.541     910.486    -235.587
  H     -165.559     912.120    -233.244
  H     -167.948     908.061    -230.535
  H     -163.449     913.173    -233.799
  H     -168.303     909.292    -231.757
  H     -164.495     913.243    -236.697
  H     -162.082     912.990    -237.259
  H     -162.435     914.540    -236.457
  P     -165.020     915.248    -233.052
  C     -167.572     915.636    -233.334
  O     -166.561     914.918    -232.667
  O     -165.043     916.827    -233.334
  O     -163.992     914.876    -232.065
  H     -164.773     917.345    -232.525
  H     -167.328     915.841    -234.388
  H     -167.766     916.568    -232.820
  H     -168.508     915.035    -233.337
  H     -157.756     912.243    -237.258
  H     -158.632     911.632    -235.876
  H     -157.481     912.931    -235.675

 3  4  5  6  7  8  9  10  11  12  23  26  30  31  33  0
 6-311+G(2d,p)
 ****
 35  36  37  38 0
 6-311+G(2d,p)
 ****
 1  2  13  14  15  16  17  18  19  20  21  22  24  25  27  28  29 0
 3-21G
 ****
 32  34  39  40  41  42  43  44  45  46  47  48  49 0
 3-21G
 ****


