%nproc=1
%NoSave
%Mem=1900MB
#P OB98/GEN NMR

erre ene a

0 1
  C     -155.350     319.002    -104.953
  O     -155.840     318.418    -106.163
  P     -154.957     317.262    -106.837
  C     -156.446     315.244    -106.138
  O     -155.916     316.033    -107.200
  C     -157.463     314.239    -106.686
  O     -158.691     314.888    -107.058
  C     -156.988     313.534    -107.948
  O     -156.062     312.511    -107.623
  C     -158.292     313.017    -108.533
  O     -158.615     311.703    -108.049
  C     -159.332     314.053    -108.044
  N     -159.894     314.845    -109.123
  C     -160.652     314.145    -110.071
  O     -160.786     312.923    -109.974
  N     -161.201     314.842    -111.118
  C     -160.995     316.120    -111.222
  N     -161.565     316.755    -112.282
  C     -160.185     316.890    -110.256
  C     -159.665     316.198    -109.247
  O     -154.084     316.708    -105.618
  O     -154.091     317.741    -107.962
  H     -159.437     311.445    -108.513
  H     -153.212     316.415    -105.930
  H     -160.034     317.952    -110.390
  H     -159.058     316.684    -108.490
  H     -160.160     313.548    -107.526
  H     -158.240     312.947    -109.627
  H     -156.534     314.258    -108.633
  H     -157.681     313.498    -105.901
  H     -162.118     316.192    -112.921
  H     -156.922     315.889    -105.396
  H     -161.466     317.739    -112.458
  H     -155.623     314.732    -105.630
  P     -154.761     312.368    -108.548
  C     -153.056     312.126    -106.645
  O     -153.743     311.464    -107.691
  O     -154.099     313.818    -108.427
  O     -154.970     311.962    -109.969
  H     -153.334     313.894    -109.024
  H     -152.565     311.373    -106.017
  H     -153.751     312.694    -106.019
  H     -152.290     312.791    -107.056
  H     -156.034     319.753    -104.617
  H     -154.393     319.446    -105.133
  H     -155.256     318.244    -104.204

 3  4  5  6  7  8  9  10  11  12  13  21  23  27  28  29  30  32 0
 6-311+G(2d,p)
 ****
 34  35 0
 6-311+G(2d,p)
 ****
 1  2  14  15  16  17  18  19  20  22  24  25  26 0
 3-21G
 ****
 31  33  36  37  38  39  40  41  42  43  44  45  46 0
 3-21G
 ****


