%nproc=1
%NoSave
%Mem=1900MB
#P OB98/GEN NMR

erre ene a

0 1
  C     -178.898     878.476     417.250
  O     -180.104     879.024     416.759
  H     -178.071     879.131     416.966
  H     -178.731     877.488     416.810
  H     -178.926     878.397     418.342
  P     -181.465     878.325     417.243
  C     -182.732     880.500     417.889
  O     -182.637     879.395     416.997
  C     -183.376     881.685     417.175
  O     -182.489     882.207     416.152
  C     -184.699     881.368     416.479
  O     -185.785     881.390     417.388
  C     -184.770     882.519     415.495
  O     -185.192     883.722     416.183
  C     -183.318     882.660     415.037
  N     -184.054     882.133     410.046
  C     -184.584     883.066     410.929
  N     -185.426     883.975     410.413
  N     -184.301     883.090     412.206
  C     -183.443     882.109     412.588
  C     -182.868     881.129     411.811
  C     -183.172     881.119     410.391
  O     -182.725     880.330     409.570
  N     -182.052     880.322     412.546
  C     -182.143     880.794     413.781
  N     -182.986     881.870     413.861
  O     -181.324     878.293     418.838
  O     -181.712     876.954     416.694
  H     -186.112     883.583     416.452
  H     -181.729     877.474     419.179
  H     -184.311     882.153     409.076
  H     -181.626     880.380     414.639
  H     -183.030     883.690     414.816
  H     -185.495     882.342     414.693
  H     -185.717     883.985     409.452
  H     -184.637     880.423     415.929
  H     -185.782     884.689     411.039
  H     -183.513     882.486     417.914
  H     -181.721     880.773     418.211
  H     -183.325     880.212     418.754
  P     -187.033     880.431     417.071
  C     -187.578     879.813     419.533
  O     -187.980     880.515     418.369
  O     -186.386     878.966     417.169
  O     -187.687     880.658     415.758
  H     -186.929     878.328     416.667
  H     -188.302     879.962     420.307
  H     -186.627     880.178     419.859
  H     -187.502     878.769     419.312

 6  7  8  9  10  11  12  13  14  15  26  29  33  34 0
 6-311+G(2d,p)
 ****
 36  38  39  40  41 0
 6-311+G(2d,p)
 ****
 1  2  3  4  5  16  17  18  19  20  21  22  23  24  25 0
 3-21G
 ****
 27  28  30  31  32  35  37  42  43  44  45  46  47 0
 3-21G
 ****
 48  49 0
 3-21G
 ****


