%nproc=1
%NoSave
%Mem=1900MB
#P OB98/GEN NMR

erre ene a

0 1
  C       60.281    -162.894     269.398
  O       59.553    -163.580     268.369
  P       58.193    -164.386     268.641
  C       56.606    -162.531     267.809
  O       57.056    -163.867     267.631
  C       55.650    -162.098     266.691
  O       56.326    -162.163     265.399
  C       54.370    -162.948     266.583
  O       53.305    -162.048     266.262
  C       54.699    -163.864     265.410
  O       53.563    -164.470     264.823
  C       55.438    -162.871     264.506
  N       56.183    -163.464     263.399
  C       55.486    -163.732     262.216
  O       54.276    -163.530     262.121
  N       56.181    -164.250     261.147
  C       57.452    -164.487     261.251
  N       58.079    -164.991     260.155
  C       58.219    -164.241     262.483
  C       57.530    -163.733     263.505
  O       57.763    -164.373     270.072
  O       58.480    -165.885     268.155
  H       58.011    -166.510     268.742
  H       53.863    -164.974     264.045
  H       59.279    -164.446     262.526
  H       58.030    -163.494     264.439
  H       54.725    -162.137     264.114
  H       55.360    -164.663     265.764
  H       54.119    -163.481     267.504
  H       55.392    -161.043     266.856
  H       57.520    -165.138     259.321
  H       57.475    -161.868     267.804
  H       59.064    -165.206     260.122
  H       56.116    -162.445     268.786
  P       51.891    -162.194     267.008
  C       52.100    -161.420     269.489
  O       51.827    -161.068     268.148
  O       52.114    -163.526     267.876
  O       50.693    -162.350     266.130
  H       51.253    -163.943     268.053
  H       52.753    -160.661     269.926
  H       52.592    -162.393     269.572
  H       51.161    -161.445     270.048
  H       61.149    -162.434     268.974
  H       60.580    -163.594     270.151
  H       59.657    -162.143     269.836

 3  4  5  6  7  8  9  10  11  12  13  24  27  28  29  30  32 0
 6-311+G(2d,p)
 ****
 34  35 0
 6-311+G(2d,p)
 ****
 1  2  14  15  16  17  18  19  20  21  22  23  25  26 0
 3-21G
 ****
 31  33  36  37  38  39  40  41  42  43  44  45  46 0
 3-21G
 ****


