%nproc=1
%NoSave
%Mem=1900MB
#P OB98/GEN NMR

erre ene a

0 1
  C       -9.447     323.998    -712.176
  O       -8.623     323.771    -713.306
  H       -9.393     323.122    -711.527
  H      -10.483     324.149    -712.478
  H       -9.090     324.872    -711.614
  P       -8.558     324.899    -714.440
  C       -9.176     323.029    -716.120
  O       -8.314     324.124    -715.823
  C       -8.887     322.496    -717.527
  O       -8.901     323.567    -718.487
  C       -7.525     321.807    -717.667
  O       -7.585     320.473    -717.193
  C       -7.334     321.884    -719.173
  O       -8.152     320.881    -719.821
  C       -7.892     323.290    -719.485
  N       -3.895     325.362    -721.839
  C       -4.564     324.190    -722.105
  N       -4.084     323.443    -723.120
  N       -5.604     323.773    -721.423
  C       -5.922     324.582    -720.398
  C       -5.334     325.769    -720.020
  C       -4.224     326.246    -720.817
  O       -3.625     327.302    -720.632
  N       -5.885     326.271    -718.868
  C       -6.842     325.414    -718.570
  N       -6.913     324.364    -719.462
  O       -7.604     326.027    -714.195
  O      -10.070     325.409    -714.574
  H       -7.973     320.031    -719.374
  H      -10.242     326.177    -713.995
  H       -3.095     325.633    -722.388
  H       -7.527     325.505    -717.729
  H       -8.378     323.326    -720.470
  H       -6.305     321.708    -719.478
  H       -3.204     323.634    -723.573
  H       -6.731     322.382    -717.182
  H       -4.526     322.544    -723.292
  H       -9.702     321.799    -717.795
  H      -10.206     323.393    -716.059
  H       -9.030     322.226    -715.387
  P       -6.603     319.946    -716.028
  C       -5.577     318.172    -717.610
  O       -6.284     318.415    -716.408
  O       -7.103     320.161    -714.641
  O       -5.209     320.665    -716.352
  H       -5.141     321.571    -715.960
  H       -5.436     317.119    -717.734
  H       -4.624     318.657    -717.567
  H       -6.136     318.557    -718.437

 6  7  8  9  10  11  12  13  14  15  26  29  33  34 0
 6-311+G(2d,p)
 ****
 36  38  39  40  41 0
 6-311+G(2d,p)
 ****
 1  2  3  4  5  16  17  18  19  20  21  22  23  24  25 0
 3-21G
 ****
 27  28  30  31  32  35  37  42  43  44  45  46  47 0
 3-21G
 ****
 48  49 0
 3-21G
 ****


