%nproc=1
%NoSave
%Mem=1900MB
#P OB98/GEN NMR

erre ene a

0 1
  C     -685.718    -118.531    -896.700
  O     -687.119    -118.368    -896.680
  H     -685.321    -118.212    -895.730
  H     -685.277    -117.903    -897.470
  H     -685.451    -119.573    -896.860
  P     -687.936    -118.918    -897.950
  C     -689.227    -120.955    -896.990
  O     -688.109    -120.502    -897.740
  C     -688.775    -121.870    -895.850
  O     -687.918    -121.106    -894.950
  C     -689.932    -122.433    -895.010
  O     -689.624    -123.782    -894.650
  C     -689.941    -121.562    -893.770
  O     -690.518    -122.221    -892.650
  C     -688.448    -121.223    -893.630
  N     -688.257    -119.995    -892.860
  C     -688.195    -120.129    -891.470
  O     -688.311    -121.238    -890.940
  N     -688.060    -119.003    -890.700
  C     -688.079    -117.838    -891.260
  N     -687.977    -116.754    -890.440
  C     -688.204    -117.642    -892.720
  C     -688.284    -118.749    -893.450
  O     -686.876    -118.824    -899.140
  O     -689.206    -118.195    -898.260
  H     -690.490    -121.604    -891.880
  H     -687.315    -118.649    -900.000
  H     -688.241    -116.645    -893.140
  H     -688.388    -118.709    -894.520
  H     -687.915    -122.039    -893.120
  H     -690.520    -120.651    -893.960
  H     -690.888    -122.410    -895.540
  H     -688.167    -122.675    -896.270
  H     -687.900    -116.923    -889.450
  H     -689.886    -121.522    -897.660
  H     -688.021    -115.797    -890.770
  H     -689.779    -120.096    -896.600
  P     -690.057    -124.927    -895.690
  C     -687.720    -126.035    -895.950
  O     -688.772    -125.313    -896.580
  O     -691.012    -124.154    -896.720
  O     -690.760    -126.078    -895.040
  H     -691.940    -124.419    -896.580
  H     -686.940    -126.219    -896.659
  H     -688.097    -126.967    -895.584
  H     -687.333    -125.462    -895.134

 6  7  8  9  10  11  12  13  14  15  16  26  30  31  32  33  35 0
 6-311+G(2d,p)
 ****
 37  38 0
 6-311+G(2d,p)
 ****
 1  2  3  4  5  17  18  19  20  21  22  23  24  25 0
 3-21G
 ****
 27  28  29  34  36  39  40  41  42  43  44  45  46 0
 3-21G
 ****


