%nproc=1
%NoSave
%Mem=1900MB
#P OB98/GEN NMR

erre ene a

0 1
  C      -27.530      63.999      40.342
  O      -27.698      62.865      41.169
  H      -28.449      64.588      40.365
  H      -27.342      63.679      39.314
  H      -26.703      64.620      40.697
  P      -26.373      62.040      41.545
  C      -24.158      62.584      42.784
  O      -25.364      63.086      42.229
  C      -23.128      63.702      42.907
  O      -22.853      64.277      41.612
  C      -23.556      64.855      43.808
  O      -23.304      64.571      45.177
  C      -22.643      65.960      43.304
  O      -21.313      65.771      43.834
  C      -22.643      65.707      41.790
  N      -23.544      69.306      38.333
  C      -22.349      68.884      38.882
  N      -21.236      69.517      38.453
  N      -22.250      67.932      39.772
  C      -23.448      67.405      40.124
  C      -24.698      67.743      39.657
  C      -24.789      68.785      38.662
  O      -25.824      69.188      38.136
  N      -25.677      66.990      40.249
  C      -25.023      66.214      41.089
  N      -23.667      66.429      41.054
  O      -25.715      61.758      40.111
  O      -26.604      60.772      42.295
  H      -21.368      65.903      44.798
  H      -25.899      60.834      39.856
  H      -23.565      70.050      37.658
  H      -25.479      65.478      41.737
  H      -21.683      65.958      41.327
  H      -22.970      66.953      43.617
  H      -21.241      70.273      37.786
  H      -24.602      65.137      43.638
  H      -20.348      69.221      38.839
  H      -22.192      63.256      43.270
  H      -23.766      61.796      42.133
  H      -24.370      62.161      43.772
  P      -24.200      65.312      46.283
  C      -26.739      65.491      46.775
  O      -25.733      65.141      45.835
  O      -23.897      66.857      46.002
  O      -23.897      64.946      47.695
  H      -23.385      67.237      46.743
  H      -27.704      65.327      46.342
  H      -26.637      66.523      47.039
  H      -26.634      64.887      47.652

 6  7  8  9  10  11  12  13  14  15  26  29  33  34 0
 6-311+G(2d,p)
 ****
 36  38  39  40  41 0
 6-311+G(2d,p)
 ****
 1  2  3  4  5  16  17  18  19  20  21  22  23  24  25 0
 3-21G
 ****
 27  28  30  31  32  35  37  42  43  44  45  46  47 0
 3-21G
 ****
 48  49 0
 3-21G
 ****


