%nproc=1
%NoSave
%Mem=1900MB
#P OB98/GEN NMR

erre ene a

0 1
  C      701.596     -63.001    -506.671
  O      702.821     -63.671    -506.430
  H      701.387     -63.029    -507.742
  H      701.672     -61.959    -506.349
  H      700.782     -63.502    -506.134
  P      703.301     -63.754    -504.904
  C      702.192     -66.033    -504.283
  O      702.190     -64.618    -504.135
  C      703.398     -66.644    -503.554
  O      703.138     -66.615    -502.117
  C      703.666     -68.108    -503.925
  O      705.079     -68.351    -503.764
  C      702.898     -68.849    -502.846
  O      703.271     -70.210    -502.803
  C      703.241     -67.975    -501.649
  N      702.494     -66.866    -496.713
  C      703.411     -66.429    -497.597
  N      703.540     -66.764    -498.901
  C      702.571     -67.617    -499.270
  C      701.560     -68.140    -498.483
  C      701.543     -67.732    -497.135
  N      700.610     -68.176    -496.222
  N      700.762     -68.997    -499.212
  C      701.282     -68.987    -500.431
  N      702.379     -68.175    -500.502
  O      703.068     -62.267    -504.359
  O      704.706     -64.211    -504.696
  H      702.989     -70.673    -503.618
  H      703.896     -61.755    -504.424
  H      704.144     -65.728    -497.213
  H      700.907     -69.550    -501.275
  H      704.272     -68.129    -501.312
  H      701.821     -68.830    -503.051
  H      703.372     -68.362    -504.950
  H      704.277     -66.014    -503.727
  H      702.249     -66.271    -505.354
  H      701.265     -66.445    -503.870
  H      700.677     -67.847    -495.273
  H      699.909     -68.836    -496.529
  P      705.990     -68.570    -505.071
  C      706.872     -66.137    -505.473
  O      706.030     -67.198    -505.901
  O      705.047     -69.486    -505.986
  O      707.307     -69.232    -504.839
  H      705.597     -70.041    -506.570
  H      706.769     -65.308    -506.142
  H      707.889     -66.468    -505.469
  H      706.592     -65.835    -504.485

 6  7  8  9  10  11  12  13  14  15  25  28  32  33  34  35 0
 6-311+G(2d,p)
 ****
 36  37  40 0
 6-311+G(2d,p)
 ****
 1  2  3  4  5  16  17  18  19  20  21  22  23  24 0
 3-21G
 ****
 26  27  29  30  31  38  39 41  42  43  44  45  46  47  48 0
 3-21G
 ****


