%nproc=1
%NoSave
%Mem=1900MB
#P OB98/GEN NMR

erre ene a

0 1
  C     -734.147     423.635     754.507
  O     -734.457     423.333     755.852
  H     -733.541     424.539     754.476
  H     -735.059     423.798     753.927
  H     -733.568     422.810     754.056
  P     -735.438     422.085     756.103
  C     -733.505     420.360     755.846
  O     -734.709     420.880     755.321
  C     -733.805     419.123     756.708
  O     -734.612     418.183     755.970
  C     -732.555     418.345     757.162
  O     -731.871     418.944     758.221
  C     -733.206     417.035     757.565
  O     -733.875     417.203     758.833
  C     -734.220     416.842     756.422
  N     -733.687     416.056     755.290
  C     -734.307     414.831     755.028
  O     -735.256     414.443     755.739
  N     -733.818     414.049     754.022
  C     -732.820     414.446     753.303
  N     -732.392     413.621     752.307
  C     -732.136     415.742     753.526
  C     -732.625     416.482     754.524
  O     -736.691     422.409     755.166
  O     -735.786     421.801     757.533
  H     -733.187     417.331     759.491
  H     -737.301     421.633     755.128
  H     -731.296     416.048     752.920
  H     -732.177     417.451     754.744
  H     -735.148     416.332     756.776
  H     -732.498     416.215     757.693
  H     -731.881     418.150     756.313
  H     -734.385     419.448     757.577
  H     -732.828     412.720     752.213
  H     -733.020     421.133     756.455
  H     -731.524     413.803     751.810
  H     -732.826     420.063     755.045
  P     -730.264     419.117     758.080
  C     -729.733     420.964     759.865
  O     -729.938     420.643     758.484
  O     -730.054     419.101     756.495
  O     -729.456     418.077     758.784
  H     -729.203     418.678     756.252
  H     -729.529     422.010     759.962
  H     -728.904     420.402     760.243
  H     -730.613     420.720     760.422

 6  7  8  9  10  11  12  13  14  15  16  26  30  31  32  33  35 0
 6-311+G(2d,p)
 ****
 37  38 0
 6-311+G(2d,p)
 ****
 1  2  3  4  5  17  18  19  20  21  22  23  24  25 0
 3-21G
 ****
 27  28  29  34  36  39  40  41  42  43  44  45  46 0
 3-21G
 ****


