%nproc=1
%NoSave
%Mem=1900MB
#P OB98/GEN NMR

erre ene a

0 1
  C      -85.257     291.710     -41.679
  O      -85.232     291.719     -40.266
  H      -84.279     291.387     -42.045
  H      -85.453     292.718     -42.052
  H      -86.016     291.018     -42.056
  P      -86.608     291.882     -39.463
  C      -86.154     290.209     -37.548
  O      -86.263     291.574     -37.926
  C      -85.614     290.097     -36.120
  O      -84.232     290.570     -36.115
  C      -86.400     290.946     -35.098
  O      -86.407     290.262     -33.842
  C      -85.536     292.188     -35.009
  O      -85.783     292.919     -33.832
  C      -84.140     291.579     -35.096
  N      -83.132     292.592     -35.402
  C      -82.402     293.099     -34.331
  O      -82.572     292.745     -33.162
  N      -81.507     294.088     -34.626
  C      -81.357     294.686     -35.846
  O      -80.595     295.625     -36.037
  C      -82.192     294.148     -36.931
  C      -83.022     293.136     -36.665
  O      -87.775     291.119     -40.003
  O      -86.870     293.460     -39.439
  H      -85.499     292.406     -33.055
  H      -87.816     293.647     -39.275
  H      -80.962     294.456     -33.863
  H      -82.105     294.608     -37.906
  H      -83.668     292.727     -37.438
  H      -83.870     291.079     -34.155
  H      -85.729     292.846     -35.864
  H      -87.425     291.158     -35.415
  H      -85.595     289.045     -35.823
  H      -85.465     289.715     -38.245
  H      -87.134     289.729     -37.618
  P      -87.710     289.496     -33.299
  C      -86.404     287.396     -32.604
  O      -87.306     288.413     -32.179
  O      -88.595     288.953     -34.377
  O      -88.502     290.614     -32.461
  H      -89.448     290.579     -32.698
  H      -86.203     286.734     -31.788
  H      -85.490     287.845     -32.932
  H      -86.841     286.846     -33.411

 6  7  8  9  10  11  12  13  14  15  16  26  31  32  33  34  35 0
 6-311+G(2d,p)
 ****
 36  37 0
 6-311+G(2d,p)
 ****
 1  2  3  4  5  17  18  19  20  21  22  23  24  25 0
 3-21G
 ****
 27  28  29  30  38  39  40  41  42  43  44  45 0
 3-21G
 ****


