%nproc=1
%NoSave
%Mem=1900MB
#P OB98/GEN NMR

erre ene a

0 1
  C     -326.444     404.647     782.360
  O     -325.270     403.876     782.470
  H     -327.275     404.093     782.804
  H     -326.674     404.829     781.306
  H     -326.333     405.602     782.887
  P     -323.886     404.564     782.022
  C     -323.179     405.099     784.465
  O     -322.873     404.410     783.258
  C     -322.450     404.468     785.650
  O     -322.953     403.122     785.846
  C     -320.936     404.372     785.447
  O     -320.286     404.635     786.711
  C     -320.704     402.917     785.069
  O     -319.387     402.463     785.380
  C     -321.830     402.219     785.840
  N     -322.168     400.928     785.234
  C     -321.212     399.910     785.350
  O     -320.141     400.124     785.928
  N     -321.464     398.697     784.755
  C     -322.535     398.540     784.038
  N     -322.714     397.321     783.455
  C     -323.538     399.613     783.840
  C     -323.299     400.759     784.471
  O     -324.233     406.126     782.020
  O     -323.338     404.093     780.715
  H     -319.327     401.514     785.144
  H     -323.716     406.598     781.337
  H     -324.407     399.442     783.216
  H     -323.971     401.606     784.372
  H     -321.530     402.049     786.885
  H     -320.854     402.798     783.984
  H     -320.552     405.069     784.695
  H     -322.694     405.038     786.555
  H     -321.992     396.619     783.605
  H     -324.265     405.039     784.640
  H     -323.487     397.105     782.842
  H     -322.905     406.158     784.362
  P     -318.926     405.488     786.656
  C     -319.496     407.447     788.280
  O     -318.760     406.244     788.065
  O     -319.275     406.675     785.630
  O     -317.737     404.705     786.205
  H     -318.804     406.540     784.791
  H     -319.280     407.827     789.257
  H     -320.543     407.243     788.200
  H     -319.216     408.172     787.545

 6  7  8  9  10  11  12  13  14  15  16  26  30  31  32  33  35 0
 6-311+G(2d,p)
 ****
 37  38 0
 6-311+G(2d,p)
 ****
 1  2  3  4  5  17  18  19  20  21  22  23  24  25 0
 3-21G
 ****
 27  28  29  34  36  39  40  41  42  43  44  45  46 0
 3-21G
 ****


