%nproc=1
%NoSave
%Mem=1900MB
#P OB98/GEN NMR

erre ene a

0 1
  C     -238.323     344.726    -222.833
  O     -237.412     345.754    -223.183
  P     -235.828     345.604    -223.048
  C     -235.015     346.653    -225.282
  O     -235.137     346.800    -223.875
  C     -234.565     347.951    -225.983
  O     -235.618     348.935    -225.904
  C     -233.354     348.548    -225.244
  O     -232.048     348.078    -225.519
  C     -233.536     350.066    -225.361
  O     -232.750     350.623    -226.429
  C     -235.029     350.217    -225.666
  N     -237.320     354.501    -224.151
  C     -236.929     354.121    -225.426
  N     -236.996     355.093    -226.372
  N     -236.502     352.917    -225.728
  C     -236.408     352.099    -224.655
  C     -236.773     352.350    -223.353
  C     -237.283     353.666    -223.041
  O     -237.559     354.065    -221.910
  N     -236.463     351.298    -222.510
  C     -235.869     350.420    -223.309
  N     -235.785     350.880    -224.607
  O     -235.267     344.218    -223.182
  O     -235.591     346.065    -221.520
  H     -231.822     350.382    -226.266
  H     -234.851     345.536    -221.159
  H     -237.568     355.463    -223.957
  H     -235.471     349.479    -222.987
  H     -235.182     350.811    -226.584
  H     -233.214     350.566    -224.438
  H     -237.176     356.051    -226.145
  H     -233.500     348.332    -224.178
  H     -236.561     354.895    -227.269
  H     -234.387     347.783    -227.046
  H     -235.985     346.331    -225.663
  H     -234.301     345.860    -225.509
  P     -230.759     348.273    -224.597
  C     -229.329     346.250    -225.239
  O     -229.497     347.659    -225.356
  O     -230.991     347.247    -223.384
  O     -230.557     349.659    -224.058
  H     -230.453     347.530    -222.600
  H     -228.309     345.982    -225.523
  H     -230.025     345.754    -225.919
  H     -229.510     345.923    -224.213
  H     -239.324     345.061    -223.010
  H     -238.206     344.483    -221.797
  H     -238.127     343.858    -223.427

 3  4  5  6  7  8  9  10  11  12  23  26  30  31 0
 6-311+G(2d,p)
 ****
 33  35  36  37  38 0
 6-311+G(2d,p)
 ****
 1  2  13  14  15  16  17  18  19  20  21  22  24  25 0
 3-21G
 ****
 27  28  29  32  34  39  40  41  42  43  44  45  46  47  48  49 0
 3-21G
 ****


