%nproc=1
%NoSave
%Mem=1900MB
#P OB98/GEN NMR

erre ene a

0 1
  C      509.551    -384.808     -37.152
  O      508.270    -384.211     -37.100
  H      509.504    -385.681     -37.807
  H      509.851    -385.136     -36.154
  H      510.292    -384.110     -37.552
  P      508.102    -382.805     -36.354
  C      505.920    -382.470     -37.698
  O      506.546    -382.427     -36.423
  C      504.559    -381.767     -37.657
  O      503.613    -382.615     -36.938
  C      504.579    -380.395     -36.943
  O      503.562    -379.593     -37.554
  C      504.184    -380.805     -35.536
  O      503.859    -379.708     -34.725
  C      503.066    -381.810     -35.868
  N      502.631    -382.650     -34.757
  C      501.866    -382.057     -33.763
  O      501.520    -380.875     -33.753
  N      501.481    -382.879     -32.735
  C      501.775    -384.205     -32.620
  O      501.378    -384.901     -31.691
  C      502.596    -384.778     -33.701
  C      502.975    -383.987     -34.707
  O      509.036    -381.722     -36.788
  O      508.311    -383.174     -34.807
  H      509.206    -382.919     -34.526
  H      503.040    -379.288     -35.070
  H      500.924    -382.468     -32.008
  H      502.854    -385.823     -33.639
  H      503.575    -384.377     -35.525
  H      502.203    -381.279     -36.279
  H      505.026    -381.306     -35.043
  H      505.543    -379.888     -37.016
  H      504.180    -381.670     -38.684
  H      505.782    -383.524     -37.971
  H      506.569    -381.996     -38.438
  P      503.876    -378.292     -38.441
  C      502.035    -378.793     -40.190
  O      502.538    -377.877     -39.220
  O      505.071    -378.438     -39.332
  O      504.088    -377.102     -37.381
  H      504.668    -376.416     -37.774
  H      501.145    -378.394     -40.630
  H      501.811    -379.726     -39.717
  H      502.771    -378.947     -40.951

 6  7  8  9  10  11  12  13  14  15  16  27  31  32  33  34  35 0
 6-311+G(2d,p)
 ****
 36  37 0
 6-311+G(2d,p)
 ****
 1  2  3  4  5  17  18  19  20  21  22  23  24  25 0
 3-21G
 ****
 26  28  29  30  38  39  40  41  42  43  44  45 0
 3-21G
 ****


