%nproc=1
%NoSave
%Mem=1900MB
#P OB98/GEN NMR

erre ene a

0 1
  C      -40.354     167.982    -400.405
  O      -40.939     167.578    -401.643
  P      -41.156     168.677    -402.797
  C      -42.421     167.293    -404.553
  O      -42.509     168.331    -403.589
  C      -42.528     165.898    -403.923
  O      -43.792     165.741    -403.225
  C      -42.421     164.739    -404.928
  O      -41.727     163.676    -404.268
  C      -43.872     164.374    -405.161
  O      -44.022     163.079    -405.724
  C      -44.433     164.557    -403.749
  N      -45.880     164.676    -403.730
  C      -46.614     163.514    -403.479
  O      -46.035     162.430    -403.381
  N      -47.982     163.609    -403.372
  C      -48.565     164.734    -403.646
  N      -49.916     164.795    -403.509
  C      -47.836     165.935    -404.093
  C      -46.510     165.842    -404.088
  O      -39.966     168.935    -403.664
  O      -41.559     169.988    -401.966
  H      -43.956     162.412    -405.009
  H      -41.196     170.775    -402.422
  H      -48.373     166.825    -404.392
  H      -45.884     166.668    -404.392
  H      -44.142     163.718    -403.102
  H      -44.326     165.096    -405.851
  H      -41.877     165.007    -405.840
  H      -41.731     165.804    -403.174
  H      -50.409     163.955    -403.224
  H      -41.468     167.373    -405.082
  H      -50.444     165.647    -403.654
  H      -43.200     167.442    -405.311
  P      -40.197     163.381    -404.658
  C      -38.789     163.143    -402.488
  O      -39.548     162.501    -403.487
  O      -39.516     164.817    -404.408
  O      -39.951     162.937    -406.063
  H      -38.716     164.886    -404.963
  H      -38.668     162.457    -401.644
  H      -39.285     164.048    -402.128
  H      -37.798     163.392    -402.880
  H      -40.281     167.137    -399.752
  H      -40.966     168.733    -399.950
  H      -39.377     168.379    -400.585

 3  4  5  6  7  8  9  10  11  12  13  23  27  28  29  30  32 0
 6-311+G(2d,p)
 ****
 34  35 0
 6-311+G(2d,p)
 ****
 1  2  14  15  16  17  18  19  20  21  22  24  25  26 0
 3-21G
 ****
 31  33  36  37  38  39  40  41  42  43  44  45  46 0
 3-21G
 ****


