%nproc=1
%NoSave
%Mem=1900MB
#P OB98/GEN NMR

erre ene a

0 1
  C       69.138    -552.962     469.924
  O       69.618    -552.925     471.256
  P       70.591    -551.748     471.727
  C       72.957    -551.764     472.828
  O       72.037    -552.402     471.965
  C       74.363    -552.351     472.668
  O       74.383    -553.637     473.320
  C       74.794    -552.592     471.226
  O       76.218    -552.729     471.193
  C       74.153    -553.938     470.940
  O       74.764    -554.606     469.837
  C       74.276    -554.666     472.306
  N       73.106    -555.525     472.569
  C       72.786    -556.469     471.596
  O       73.474    -556.653     470.594
  N       71.608    -557.136     471.773
  C       70.720    -556.904     472.790
  O       69.542    -557.274     472.771
  C       71.215    -556.074     473.901
  C       72.366    -555.406     473.732
  O       70.073    -551.430     473.208
  O       70.578    -550.538     470.860
  H       74.564    -554.078     469.031
  H       69.457    -550.666     473.189
  H       71.304    -557.713     471.001
  H       70.605    -555.992     474.787
  H       72.732    -554.755     474.510
  H       75.176    -555.300     472.341
  H       73.099    -553.786     470.692
  H       74.466    -551.831     470.520
  H       75.083    -551.694     473.185
  H       72.608    -551.863     473.861
  H       72.982    -550.694     472.617
  P       76.965    -552.370     469.822
  C       78.304    -554.196     468.596
  O       77.022    -553.727     468.968
  O       78.265    -551.644     469.958
  O       75.883    -551.498     469.027
  H       76.320    -550.981     468.325
  H       78.270    -555.284     468.510
  H       79.061    -553.919     469.342
  H       78.581    -553.768     467.635
  H       68.505    -553.816     469.796
  H       69.965    -553.027     469.248
  H       68.581    -552.071     469.721

 3  4  5  6  7  8  9  10  11  12  13  23  28  29  30  31  32 0
 6-311+G(2d,p)
 ****
 33  34 0
 6-311+G(2d,p)
 ****
 1  2  14  15  16  17  18  19  20  21  22  24  25  26  27 0
 3-21G
 ****
 35  36  37  38  39  40  41  42  43  44  45 0
 3-21G
 ****


