%nproc=1
%NoSave
%Mem=1900MB
#P OB98/GEN NMR

erre ene a

0 1
  C     1394.517       2.743     271.463
  O     1394.479       4.160     271.555
  H     1394.673       2.334     272.470
  H     1395.346       2.436     270.823
  H     1393.569       2.375     271.075
  P     1394.294       4.961     270.173
  C     1395.883       4.889     268.142
  O     1395.768       5.004     269.540
  C     1397.343       4.975     267.704
  O     1398.178       4.197     268.590
  C     1397.627       4.478     266.294
  O     1397.346       5.486     265.343
  C     1399.126       4.180     266.377
  O     1399.854       5.414     266.214
  C     1399.283       3.668     267.820
  N     1402.248      -0.503     268.304
  C     1402.552       0.775     268.007
  N     1401.710       1.833     267.839
  C     1400.429       1.440     268.026
  C     1399.977       0.179     268.340
  C     1400.934      -0.831     268.487
  N     1400.628      -2.139     268.788
  N     1398.590       0.150     268.429
  C     1398.227       1.402     268.250
  N     1399.306       2.224     267.968
  O     1393.578       6.266     270.278
  O     1393.568       3.855     269.276
  H     1400.813       5.184     266.305
  H     1393.964       2.975     269.422
  H     1403.610       1.003     267.898
  H     1397.219       1.782     268.343
  H     1400.204       4.044     268.286
  H     1399.462       3.501     265.592
  H     1397.091       3.535     266.076
  H     1397.666       6.030     267.818
  H     1395.305       5.678     267.635
  H     1401.366      -2.819     268.697
  H     1399.645      -2.405     268.776
  H     1395.464       3.914     267.847
  P     1396.756       5.122     263.885
  C     1397.812       3.763     261.979
  O     1398.040       4.707     263.020
  O     1395.884       6.169     263.294
  O     1396.001       3.716     264.118
  H     1395.407       3.555     263.354
  H     1398.733       3.562     261.472
  H     1397.102       4.162     261.285
  H     1397.430       2.856     262.398

 6  7  8  9  10  11  12  13  14  15  25  28  32  33  34  35 0
 6-311+G(2d,p)
 ****
 36  39  40 0
 6-311+G(2d,p)
 ****
 1  2  3  4  5  16  17  18  19  20  21  22  23  24 0
 3-21G
 ****
 26  27  29  30  31  37  38  41  42  43  44  45  46  47 0
 3-21G
 ****
 48 0
 3-21G
 ****


