%nproc=1
%NoSave
%Mem=1900MB
#P OB98/GEN NMR

erre ene a

0 1
  C      -69.829    -115.904       4.688
  O      -70.427    -116.018       3.391
  P      -72.025    -115.949       3.289
  C      -72.430    -113.378       3.264
  O      -72.525    -114.596       3.989
  C      -73.601    -113.244       2.286
  O      -74.855    -113.069       2.975
  C      -73.483    -112.049       1.352
  O      -72.640    -112.333       0.245
  C      -74.923    -111.892       0.891
  O      -75.213    -112.852      -0.144
  C      -75.710    -112.231       2.163
  N      -79.485    -110.036       4.840
  C      -79.424    -111.199       4.153
  N      -78.389    -111.706       3.451
  C      -77.328    -110.887       3.512
  C      -77.241    -109.672       4.170
  C      -78.387    -109.245       4.860
  N      -78.442    -108.061       5.559
  N      -75.993    -109.110       3.999
  C      -75.332    -109.980       3.263
  N      -76.099    -111.066       2.936
  O      -72.502    -117.087       4.309
  O      -72.555    -116.190       1.915
  H      -74.566    -112.704      -0.859
  H      -73.315    -117.509       3.977
  H      -80.327    -111.802       4.170
  H      -74.304    -109.870       2.947
  H      -76.623    -112.799       1.949
  H      -75.126    -110.903       0.472
  H      -73.162    -111.153       1.899
  H      -73.657    -114.168       1.696
  H      -71.481    -113.338       2.722
  H      -79.289    -107.835       6.053
  H      -77.618    -107.479       5.597
  H      -72.414    -112.544       3.973
  P      -71.257    -111.526       0.150
  C      -69.910    -113.743       0.010
  O      -70.133    -112.527       0.696
  O      -71.401    -110.430       1.308
  O      -70.995    -110.905      -1.180
  H      -70.902    -109.625       1.071
  H      -68.941    -114.144       0.314
  H      -69.902    -113.590      -1.072
  H      -70.690    -114.463       0.273
  H      -68.765    -115.968       4.597
  H      -70.181    -116.697       5.314
  H      -70.094    -114.962       5.122

 3  4  5  6  7  8  9  10  11  12  22  25  29  30  31  32 0
 6-311+G(2d,p)
 ****
 33  36  37 0
 6-311+G(2d,p)
 ****
 1  2  13  14  15  16  17  18  19  20  21  23  24  26 0
 3-21G
 ****
 27  28  34  35  38  39  40  41  42  43  44  45  46  47  48 0
 3-21G
 ****


