%nproc=1
%NoSave
%Mem=1900MB
#P OB98/GEN NMR

erre ene a

0 1
  C       95.836     595.029     462.813
  O       95.995     596.142     463.673
  P       95.075     596.210     464.989
  C       93.574     598.353     465.118
  O       93.761     597.027     464.606
  C       94.107     599.371     464.119
  O       93.736     598.992     462.765
  C       93.540     600.772     464.314
  O       94.194     601.444     465.371
  C       93.790     601.407     462.948
  O       95.139     601.893     462.849
  C       93.581     600.203     461.994
  N       92.288     600.255     461.317
  C       92.185     601.167     460.264
  O       93.111     601.897     459.927
  N       90.977     601.220     459.634
  C       89.861     600.518     459.978
  O       88.772     600.645     459.420
  C       90.012     599.594     461.136
  C       91.193     599.511     461.733
  O       95.873     597.203     465.966
  O       94.823     594.893     465.635
  H       95.722     601.108     462.903
  H       95.770     596.914     466.890
  H       90.896     601.855     458.858
  H       89.147     599.026     461.430
  H       91.331     598.857     462.583
  H       94.371     600.186     461.238
  H       93.123     602.257     462.768
  H       92.460     600.719     464.493
  H       95.210     599.374     464.171
  H       94.125     598.435     466.068
  H       92.517     598.508     465.319
  P       93.399     602.641     466.089
  C       94.200     605.016     465.340
  O       93.462     603.857     465.038
  O       94.422     603.036     467.250
  O       92.042     602.244     466.569
  H       95.349     602.905     466.998
  H       95.106     604.782     465.916
  H       93.580     605.710     465.921
  H       94.489     605.505     464.408
  H       96.509     595.119     461.986
  H       94.829     594.998     462.452
  H       96.050     594.129     463.351

 3  4  5  6  7  8  9  10  11  12  13  23  28  29  30  31  32 0
 6-311+G(2d,p)
 ****
 33  34 0
 6-311+G(2d,p)
 ****
 1  2  14  15  16  17  18  19  20  21  22  24  25  26 0
 3-21G
 ****
 27  35  36  37  38  39  40  41  42  43  44  45 0
 3-21G
 ****


