%nproc=1
%NoSave
%Mem=1900MB
#P OB98/GEN NMR

erre ene a

0 1
  C      524.530     994.741    -834.242
  O      524.289     994.652    -835.634
  H      524.542     995.793    -833.959
  H      525.500     994.309    -834.016
  H      523.748     994.225    -833.683
  P      524.208     993.167    -836.263
  C      521.618     993.199    -836.644
  O      522.727     992.641    -835.918
  C      520.532     992.129    -836.798
  O      521.067     990.954    -837.442
  C      519.887     991.701    -835.452
  O      518.471     991.608    -835.611
  C      520.489     990.336    -835.208
  O      519.662     989.510    -834.393
  C      520.725     989.824    -836.654
  N      521.801     988.820    -836.692
  C      521.469     987.524    -836.204
  O      520.327     987.292    -835.771
  N      522.442     986.559    -836.189
  C      523.649     986.840    -836.568
  N      524.562     985.839    -836.503
  C      524.036     988.190    -837.030
  C      523.095     989.110    -837.075
  O      525.147     992.313    -835.313
  O      524.558     993.075    -837.720
  H      519.524     989.975    -833.545
  H      525.358     991.429    -835.692
  H      525.070     988.401    -837.335
  H      523.270     990.125    -837.384
  H      519.800     989.355    -837.048
  H      521.463     990.448    -834.690
  H      520.113     992.377    -834.651
  H      519.760     992.536    -837.489
  H      524.255     984.937    -836.178
  H      521.978     993.509    -837.639
  H      525.549     985.984    -836.745
  H      521.234     994.068    -836.108
  P      517.661     992.993    -835.402
  C      515.773     993.152    -837.218
  O      517.131     993.460    -836.854
  O      518.809     994.029    -835.074
  O      516.646     992.906    -834.357
  H      518.877     994.177    -834.120
  H      515.574     993.524    -838.201
  H      515.104     993.612    -836.521
  H      515.631     992.092    -837.202

 6  7  8  9  10  11  12  13  14  15  16  26  30  31  32  33  35 0
 6-311+G(2d,p)
 ****
 37  38 0
 6-311+G(2d,p)
 ****
 1  2  3  4  5  17  18  19  20  21  22  23  24  25 0
 3-21G
 ****
 27  28  29  34  36  39  40  41  42  43  44  45  46 0
 3-21G
 ****


