%nproc=1
%NoSave
%Mem=1900MB
#P OB98/GEN NMR

erre ene a

0 1
  C      134.579      95.933     -44.435
  O      134.080      97.203     -44.070
  H      135.529      95.751     -43.926
  H      133.862      95.169     -44.121
  H      134.715      95.864     -45.517
  P      134.816      98.486     -44.692
  C      134.187      98.617     -47.207
  O      133.871      99.016     -45.882
  C      132.920      98.542     -48.058
  O      133.306      98.325     -49.444
  C      131.953      97.416     -47.657
  O      130.613      97.902     -47.787
  C      132.199      96.357     -48.714
  O      131.077      95.501     -48.904
  C      132.528      97.215     -49.930
  N      132.227      95.195     -54.585
  C      131.478      96.121     -53.954
  N      131.661      96.646     -52.725
  C      132.786      96.170     -52.169
  C      133.656      95.229     -52.690
  C      133.330      94.717     -53.960
  N      134.050      93.723     -54.582
  N      134.667      94.956     -51.792
  C      134.397      95.698     -50.735
  N      133.268      96.447     -50.916
  O      136.057      97.829     -45.463
  O      135.251      99.520     -43.709
  H      130.288      96.050     -49.083
  H      136.810      97.737     -44.851
  H      130.610      96.480     -54.502
  H      134.961      95.709     -49.813
  H      131.632      97.612     -50.423
  H      133.058      95.739     -48.422
  H      132.114      97.040     -46.640
  H      132.417      99.517     -48.015
  H      134.654      97.627     -47.181
  H      133.678      93.345     -55.440
  H      134.806      93.280     -54.081
  H      134.896      99.331     -47.641
  P      129.833      98.285     -46.439
  C      130.547     100.784     -46.307
  O      129.489      99.848     -46.475
  O      130.969      98.180     -45.315
  O      128.677      97.388     -46.135
  H      130.583      97.885     -44.472
  H      130.155     101.778     -46.356
  H      131.271     100.647     -47.083
  H      131.011     100.630     -45.355

 6  7  8  9  10  11  12  13  14  15  25  28  32  33  34  35 0
 6-311+G(2d,p)
 ****
 36  39  40 0
 6-311+G(2d,p)
 ****
 1  2  3  4  5  16  17  18  19  20  21  22  23  24 0
 3-21G
 ****
 26  27  29  30  31  37  38  41  42  43  44  45  46  47 0
 3-21G
 ****
 48 0
 3-21G
 ****


