%nproc=1
%NoSave
%Mem=1900MB
#P OB98/GEN NMR

erre ene a

0 1
  C      351.461    -129.174     241.806
  O      350.518    -128.259     241.240
  P      351.115    -126.890     240.640
  C      349.322    -125.097     241.226
  O      349.874    -125.956     240.237
  C      347.989    -124.517     240.757
  O      348.189    -123.480     239.777
  C      347.071    -125.527     240.077
  O      346.386    -126.333     241.023
  C      346.105    -124.605     239.349
  O      345.075    -124.162     240.254
  C      347.010    -123.427     238.941
  N      349.354    -120.946     235.195
  C      349.106    -120.556     236.497
  N      349.580    -119.340     236.860
  N      348.457    -121.290     237.366
  C      348.072    -122.493     236.870
  C      348.258    -122.991     235.604
  C      348.950    -122.155     234.640
  O      349.165    -122.440     233.469
  N      347.733    -124.256     235.479
  C      347.261    -124.525     236.678
  N      347.429    -123.485     237.555
  O      351.707    -127.351     239.222
  O      352.158    -126.253     241.500
  H      345.521    -123.864     241.068
  H      352.437    -126.757     238.956
  H      349.851    -120.340     234.566
  H      346.792    -125.460     236.963
  H      346.527    -122.463     239.120
  H      345.601    -125.099     238.514
  H      350.147    -118.759     236.265
  H      347.628    -126.131     239.346
  H      349.436    -119.056     237.822
  H      347.482    -124.080     241.628
  H      350.018    -124.281     241.436
  H      349.200    -125.659     242.158
  P      346.969    -127.804     241.293
  C      344.911    -129.378     241.481
  O      345.847    -128.554     242.155
  O      348.150    -127.543     242.338
  O      347.447    -128.517     240.069
  H      348.844    -128.224     242.248
  H      345.392    -129.988     240.716
  H      344.144    -128.747     241.020
  H      344.433    -130.041     242.212
  H      350.946    -130.039     242.168
  H      351.976    -128.700     242.616
  H      352.167    -129.467     241.057

 3  4  5  6  7  8  9  10  11  12  23  26  30  31  33  0
 6-311+G(2d,p)
 ****
 35  36  37  38 0
 6-311+G(2d,p)
 ****
 1  2  13  14  15  16  17  18  19  20  21  22  24  25  27  28  29 0
 3-21G
 ****
 32  34  39  40  41  42  43  44  45  46  47  48  49 0
 3-21G
 ****


