%nproc=1
%NoSave
%Mem=1900MB
#P OB98/GEN NMR

erre ene a

0 1
  C     -552.381     558.508     243.747
  O     -552.833     559.082     242.535
  P     -553.654     560.465     242.536
  C     -551.771     562.242     242.557
  O     -552.711     561.511     241.766
  C     -550.420     562.294     241.819
  O     -549.891     560.956     241.663
  C     -550.491     562.867     240.408
  O     -550.609     564.280     240.429
  C     -549.205     562.312     239.810
  O     -548.079     563.133     240.223
  C     -549.109     560.922     240.457
  N     -549.551     559.860     239.561
  C     -548.590     559.267     238.758
  O     -547.405     559.630     238.806
  N     -548.964     558.244     237.919
  C     -550.201     557.863     237.871
  N     -550.512     556.797     237.071
  C     -551.270     558.498     238.664
  C     -550.892     559.475     239.486
  O     -554.108     560.921     243.892
  O     -554.844     560.236     241.502
  H     -548.111     563.209     241.195
  H     -555.656     559.838     241.908
  H     -552.295     558.161     238.576
  H     -551.597     559.989     240.105
  H     -548.076     560.728     240.771
  H     -549.191     562.319     238.713
  H     -551.357     562.445     239.865
  H     -549.723     562.876     242.436
  H     -549.715     556.283     236.699
  H     -551.621     561.713     243.511
  H     -551.361     556.284     237.199
  H     -552.144     563.242     242.749
  P     -551.436     564.982     239.240
  C     -553.417     565.170     240.897
  O     -552.588     565.844     239.954
  O     -552.199     563.756     238.556
  O     -550.580     565.744     238.274
  H     -551.733     563.473     237.737
  H     -553.989     565.927     241.451
  H     -552.811     564.609     241.621
  H     -554.110     564.505     240.400
  H     -551.860     557.597     243.538
  H     -553.220     558.302     244.379
  H     -551.722     559.191     244.241

 3  4  5  6  7  8  9  10  11  12  13  23  27  28  29  30  32 0
 6-311+G(2d,p)
 ****
 34  35 0
 6-311+G(2d,p)
 ****
 1  2  14  15  16  17  18  19  20  21  22  24  25  26 0
 3-21G
 ****
 31  33  36  37  38  39  40  41  42  43  44  45  46 0
 3-21G
 ****


