%nproc=1
%NoSave
%Mem=1900MB
#P OB98/GEN NMR

erre ene a

0 1
  C     -600.959     -25.671    -443.813
  O     -602.074     -24.801    -443.768
  H     -600.270     -25.368    -444.611
  H     -600.430     -25.609    -442.854
  H     -601.291     -26.701    -443.972
  P     -602.924     -24.667    -445.116
  C     -605.307     -25.436    -444.428
  O     -604.072     -25.791    -445.050
  C     -605.726     -26.523    -443.436
  O     -604.677     -26.725    -442.451
  C     -606.981     -26.205    -442.648
  O     -608.162     -26.440    -443.395
  C     -606.846     -27.212    -441.491
  O     -607.289     -28.505    -441.932
  C     -605.323     -27.221    -441.247
  N     -605.153     -26.834    -436.120
  C     -605.661     -27.794    -436.944
  N     -605.672     -27.818    -438.293
  C     -605.081     -26.724    -438.803
  C     -604.545     -25.657    -438.099
  C     -604.598     -25.733    -436.706
  N     -604.101     -24.744    -435.879
  N     -604.023     -24.719    -438.953
  C     -604.252     -25.197    -440.167
  N     -604.910     -26.408    -440.129
  O     -601.931     -25.227    -446.240
  O     -603.392     -23.288    -445.440
  H     -608.263     -28.457    -441.984
  H     -602.063     -24.711    -447.068
  H     -606.085     -28.661    -436.453
  H     -603.960     -24.708    -441.087
  H     -604.951     -28.246    -441.090
  H     -607.433     -26.936    -440.621
  H     -606.957     -25.193    -442.245
  H     -605.833     -27.470    -444.000
  H     -606.081     -25.338    -445.196
  H     -603.987     -24.956    -434.889
  H     -603.665     -23.938    -436.309
  H     -605.175     -24.480    -443.922
  P     -608.943     -25.159    -443.964
  C     -610.103     -26.530    -445.853
  O     -609.209     -25.468    -445.524
  O     -607.812     -24.024    -444.005
  O     -610.124     -24.735    -443.168
  H     -608.201     -23.142    -443.952
  H     -610.179     -26.615    -446.917
  H     -611.069     -26.323    -445.442
  H     -609.731     -27.448    -445.447

 6  7  8  9  10  11  12  13  14  15  25  28  32  33  34  35 0
 6-311+G(2d,p)
 ****
 36  39  40 0
 6-311+G(2d,p)
 ****
 1  2  3  4  5  16  17  18  19  20  21  22  23  24 0
 3-21G
 ****
 26  27  29  30  31  37  38  41  42  43  44  45  46  47  48 0
 3-21G
 ****


