%nproc=1
%NoSave
%Mem=1900MB
#P OB98/GEN NMR

erre ene a

0 1
  C     -345.101     609.277     196.237
  O     -345.269     608.242     197.207
  P     -343.964     607.557     197.842
  C     -343.364     609.473     199.454
  O     -343.779     608.123     199.331
  C     -343.557     609.970     200.892
  O     -344.934     610.310     201.157
  C     -343.178     608.943     201.939
  O     -341.772     608.813     202.042
  C     -343.873     609.502     203.174
  O     -343.083     610.532     203.785
  C     -345.164     610.109     202.574
  N     -346.346     609.306     202.812
  C     -347.182     609.735     203.849
  O     -346.880     610.719     204.523
  N     -348.335     609.031     204.105
  C     -348.618     607.982     203.388
  N     -349.775     607.327     203.680
  C     -347.761     607.492     202.294
  C     -346.652     608.185     202.070
  O     -342.737     607.597     196.991
  O     -344.441     606.044     198.098
  H     -343.643     610.914     204.495
  H     -343.670     605.455     198.018
  H     -348.045     606.617     201.726
  H     -345.962     607.891     201.291
  H     -345.340     611.105     202.998
  H     -344.045     608.728     203.934
  H     -343.624     607.967     201.673
  H     -342.949     610.876     201.023
  H     -350.344     607.677     204.448
  H     -343.946     610.096     198.765
  H     -350.107     606.535     203.149
  H     -342.316     609.556     199.150
  P     -341.180     607.364     202.387
  C     -340.720     606.578     199.961
  O     -340.177     606.953     201.211
  O     -342.437     606.400     202.149
  O     -340.637     607.216     203.777
  H     -342.408     605.654     202.781
  H     -339.925     606.645     199.202
  H     -341.534     607.247     199.668
  H     -341.083     605.552     200.010
  H     -346.061     609.625     195.916
  H     -344.561     608.894     195.396
  H     -344.555     610.088     196.672

 3  4  5  6  7  8  9  10  11  12  13  23  27  28  29  30  32 0
 6-311+G(2d,p)
 ****
 34  35 0
 6-311+G(2d,p)
 ****
 1  2  14  15  16  17  18  19  20  21  22  24  25  26 0
 3-21G
 ****
 31  33  36  37  38  39  40  41  42  43  44  45  46 0
 3-21G
 ****


