%nproc=1
%NoSave
%Mem=1900MB
#P OB98/GEN NMR

erre ene a

0 1
  C      446.191    -562.178    -580.205
  O      447.473    -562.545    -579.723
  H      445.493    -562.155    -579.361
  H      445.840    -562.916    -580.936
  H      446.228    -561.185    -580.666
  P      448.630    -562.697    -580.830
  C      449.912    -561.239    -579.107
  O      449.995    -562.252    -580.108
  C      451.288    -560.621    -578.870
  O      452.113    -561.466    -578.026
  C      452.095    -560.362    -580.143
  O      451.709    -559.132    -580.740
  C      453.515    -560.335    -579.601
  O      453.811    -559.060    -579.000
  C      453.471    -561.440    -578.520
  N      457.296    -564.243    -580.267
  C      457.251    -562.900    -579.944
  N      458.378    -562.187    -580.154
  N      456.180    -562.299    -579.485
  C      455.106    -563.119    -579.385
  C      455.029    -564.460    -579.665
  C      456.232    -565.126    -580.115
  O      456.366    -566.332    -580.338
  N      453.772    -564.958    -579.411
  C      453.077    -563.896    -579.024
  N      453.850    -562.758    -578.984
  O      448.334    -561.489    -581.839
  O      448.670    -564.002    -581.545
  H      453.249    -558.935    -578.223
  H      448.522    -561.793    -582.753
  H      458.154    -564.654    -580.584
  H      452.036    -563.914    -578.737
  H      454.129    -561.210    -577.673
  H      454.251    -560.492    -580.392
  H      459.118    -562.509    -580.767
  H      451.986    -561.204    -580.846
  H      458.310    -561.182    -580.002
  H      451.134    -559.676    -578.315
  H      449.558    -561.707    -578.167
  H      449.206    -560.474    -579.418
  P      450.591    -559.186    -581.897
  C      450.526    -556.607    -582.162
  O      450.745    -557.860    -582.790
  O      449.220    -558.930    -581.090
  O      450.547    -560.473    -582.658
  H      448.729    -559.784    -581.009
  H      450.663    -555.822    -582.876
  H      451.222    -556.484    -581.359
  H      449.528    -556.570    -581.778

 6  7  8  9  10  11  12  13  14  15  26  29  33  34 0
 6-311+G(2d,p)
 ****
 36  38  39  40  41 0
 6-311+G(2d,p)
 ****
 1  2  3  4  5  16  17  18  19  20  21  22  23  24  25 0
 3-21G
 ****
 27  28  30  31  32  35  37  42  43  44  45  46  47 0
 3-21G
 ****
 48  49 0
 3-21G
 ****


