%nproc=1
%NoSave
%Mem=1900MB
#P OB98/GEN NMR

erre ene a

0 1
  C      -45.685     178.929    -478.737
  O      -45.959     177.834    -477.878
  P      -46.718     178.060    -476.484
  C      -48.837     177.029    -477.517
  O      -48.286     178.145    -476.823
  C      -50.172     176.621    -476.904
  O      -49.944     176.121    -475.568
  C      -51.170     177.772    -476.800
  O      -52.493     177.276    -477.036
  C      -51.079     178.214    -475.345
  O      -52.296     178.840    -474.911
  C      -50.748     176.890    -474.650
  N      -51.032     178.002    -469.648
  C      -51.989     177.864    -470.587
  N      -51.839     177.591    -471.905
  C      -50.544     177.402    -472.205
  C      -49.460     177.508    -471.344
  C      -49.739     177.824    -470.008
  N      -48.764     177.946    -469.040
  N      -48.278     177.270    -472.025
  C      -48.645     177.014    -473.261
  N      -50.006     177.071    -473.418
  O      -46.204     179.188    -475.658
  O      -46.589     176.658    -475.722
  H      -53.015     178.187    -475.033
  H      -46.448     176.803    -474.768
  H      -53.009     177.993    -470.241
  H      -47.970     176.792    -474.078
  H      -51.656     176.310    -474.430
  H      -50.270     178.942    -475.232
  H      -50.949     178.597    -477.491
  H      -50.597     175.803    -477.499
  H      -48.136     176.191    -477.439
  H      -49.064     178.057    -468.090
  H      -47.825     177.643    -469.268
  H      -48.954     177.282    -478.580
  P      -53.457     178.231    -477.895
  C      -53.397     177.005    -480.190
  O      -52.942     178.081    -479.405
  O      -53.532     179.609    -477.330
  O      -54.833     177.408    -477.834
  H      -54.676     176.453    -477.685
  H      -52.912     177.052    -481.170
  H      -54.481     177.074    -480.334
  H      -53.148     176.047    -479.716
  H      -45.176     178.578    -479.611
  H      -45.068     179.638    -478.226
  H      -46.604     179.397    -479.023

 3  4  5  6  7  8  9  10  11  12  22  25  29  30  31  32 0
 6-311+G(2d,p)
 ****
 33  36  37 0
 6-311+G(2d,p)
 ****
 1  2  13  14  15  16  17  18  19  20  21  23  24  26 0
 3-21G
 ****
 27  28  34  35  38  39  40  41  42  43  44  45  46  47  48 0
 3-21G
 ****


