%nproc=1
%NoSave
%Mem=1900MB
#P OB98/GEN NMR

erre ene a

0 1
  C     -329.661    -409.679     -52.337
  O     -330.003    -408.958     -51.170
  H     -328.579    -409.832     -52.347
  H     -329.938    -409.108     -53.229
  H     -330.155    -410.654     -52.345
  P     -331.544    -408.595     -50.917
  C     -331.233    -406.025     -50.790
  O     -331.710    -407.123     -51.549
  C     -332.265    -404.894     -50.794
  O     -332.642    -404.533     -52.142
  C     -333.581    -405.224     -50.098
  O     -333.491    -405.254     -48.687
  C     -334.433    -404.069     -50.602
  O     -334.086    -402.869     -49.892
  C     -333.996    -404.002     -52.083
  N     -334.883    -404.755     -52.970
  C     -336.078    -404.124     -53.338
  O     -336.353    -403.003     -52.923
  N     -336.959    -404.802     -54.156
  C     -336.677    -406.005     -54.544
  N     -337.585    -406.630     -55.348
  C     -335.436    -406.714     -54.160
  C     -334.594    -406.040     -53.385
  O     -332.034    -408.747     -49.511
  O     -332.347    -409.492     -51.973
  H     -333.121    -402.765     -49.962
  H     -333.312    -409.313     -51.851
  H     -335.270    -407.732     -54.487
  H     -333.668    -406.492     -53.055
  H     -333.948    -402.959     -52.427
  H     -335.504    -404.234     -50.455
  H     -334.002    -406.161     -50.489
  H     -331.782    -404.011     -50.346
  H     -338.423    -406.126     -55.589
  H     -330.285    -405.695     -51.223
  H     -337.486    -407.600     -55.630
  H     -331.063    -406.333     -49.753
  P     -334.155    -406.522     -47.943
  C     -336.330    -405.130     -47.524
  O     -335.742    -406.316     -48.041
  O     -333.817    -406.248     -46.402
  O     -333.675    -407.860     -48.416
  H     -333.038    -406.769     -46.124
  H     -337.389    -405.162     -47.674
  H     -335.924    -404.280     -48.031
  H     -336.120    -405.055     -46.477

 6  7  8  9  10  11  12  13  14  15  16  26  30  31  32  33  35 0
 6-311+G(2d,p)
 ****
 37  38 0
 6-311+G(2d,p)
 ****
 1  2  3  4  5  17  18  19  20  21  22  23  24  25 0
 3-21G
 ****
 27  28  29  34  36  39  40  41  42  43  44  45  46 0
 3-21G
 ****


