%nproc=1
%NoSave
%Mem=1900MB
#P OB98/GEN NMR

erre ene a

0 1
  C       37.954    -302.006       8.455
  O       36.792    -302.636       7.916
  P       36.862    -304.190       7.519
  C       38.015    -304.077       5.225
  O       38.153    -304.430       6.595
  C       39.347    -304.151       4.466
  O       39.121    -304.320       3.040
  C       40.240    -302.915       4.638
  O       41.598    -303.377       4.653
  C       39.954    -302.129       3.374
  O       40.956    -301.160       3.098
  C       39.833    -303.272       2.361
  N       39.162    -302.863       1.137
  C       39.798    -301.911       0.342
  O       40.835    -301.373       0.738
  N       39.231    -301.572      -0.861
  C       38.056    -302.031      -1.163
  N       37.535    -301.688      -2.373
  C       37.272    -302.899      -0.263
  C       37.891    -303.292       0.844
  O       35.593    -304.774       6.992
  O       37.284    -304.890       8.901
  H       41.752    -301.616       2.751
  H       36.852    -305.765       8.954
  H       36.266    -303.189      -0.524
  H       37.404    -303.934       1.565
  H       40.825    -303.666       2.099
  H       38.996    -301.603       3.475
  H       40.041    -302.359       5.559
  H       39.884    -305.041       4.816
  H       38.072    -301.072      -2.970
  H       37.619    -303.060       5.158
  H       36.648    -302.047      -2.705
  H       37.261    -304.725       4.764
  P       42.656    -302.645       5.611
  C       44.445    -302.421       3.737
  O       43.633    -301.769       4.689
  O       43.609    -303.867       6.035
  O       42.098    -301.986       6.830
  H       44.033    -303.656       6.887
  H       44.817    -301.678       3.027
  H       43.881    -303.180       3.184
  H       45.298    -302.891       4.237
  H       37.739    -300.979       8.664
  H       38.753    -302.066       7.746
  H       38.241    -302.501       9.359

 3  4  5  6  7  8  9  10  11  12  13  23  27  28  29  30  32 0
 6-311+G(2d,p)
 ****
 34  35 0
 6-311+G(2d,p)
 ****
 1  2  14  15  16  17  18  19  20  21  22  24  25  26 0
 3-21G
 ****
 31  33  36  37  38  39  40  41  42  43  44  45  46 0
 3-21G
 ****


