%nproc=1
%NoSave
%Mem=1900MB
#P OB98/GEN NMR

erre ene a

0 1
  C       55.343     224.683    -200.777
  O       54.292     225.172    -201.579
  H       56.241     225.272    -200.986
  H       55.555     223.639    -201.018
  H       55.099     224.783    -199.717
  P       52.854     224.461    -201.509
  C       52.810     223.188    -203.738
  O       52.365     224.344    -203.039
  C       52.195     223.123    -205.136
  O       50.747     223.066    -205.028
  C       52.545     224.326    -206.023
  O       52.952     223.872    -207.316
  C       51.229     225.080    -206.138
  O       51.150     225.889    -207.307
  C       50.228     223.924    -206.059
  N       48.877     224.387    -205.770
  C       48.175     224.950    -206.841
  O       48.699     225.025    -207.954
  N       46.923     225.460    -206.617
  C       46.434     225.455    -205.417
  N       45.200     226.003    -205.257
  C       47.152     224.897    -204.252
  C       48.354     224.381    -204.499
  O       51.882     225.110    -200.582
  O       53.168     222.939    -201.124
  H       51.033     225.302    -208.086
  H       52.361     222.538    -200.724
  H       46.700     224.921    -203.271
  H       48.956     223.950    -203.706
  H       50.209     223.355    -206.999
  H       51.111     225.735    -205.266
  H       53.331     224.956    -205.604
  H       52.504     222.180    -205.606
  H       44.746     226.380    -206.081
  H       52.536     222.301    -203.157
  H       44.728     226.077    -204.370
  H       53.900     223.238    -203.829
  P       54.497     223.465    -207.471
  C       55.140     225.680    -208.657
  O       55.096     224.263    -208.726
  O       54.429     221.946    -207.970
  O       55.273     223.590    -206.203
  H       54.737     221.350    -207.264
  H       55.561     226.068    -209.561
  H       55.743     225.978    -207.825
  H       54.148     226.062    -208.533

 6  7  8  9  10  11  12  13  14  15  16  26  30  31  32  33  35 0
 6-311+G(2d,p)
 ****
 37  38 0
 6-311+G(2d,p)
 ****
 1  2  3  4  5  17  18  19  20  21  22  23  24  25 0
 3-21G
 ****
 27  28  29  34  36  39  40  41  42  43  44  45  46 0
 3-21G
 ****


