%nproc=1
%NoSave
%Mem=1900MB
#P OB98/GEN NMR

erre ene a

0 1
  C      -22.401     159.472    -128.363
  O      -23.545     158.810    -127.826
  P      -23.389     158.017    -126.443
  C      -24.901     157.260    -124.491
  O      -24.848     157.811    -125.804
  C      -26.313     157.403    -123.901
  O      -26.619     158.817    -123.747
  C      -27.438     156.829    -124.772
  O      -27.795     155.459    -124.598
  C      -28.633     157.652    -124.296
  O      -29.177     157.072    -123.093
  C      -28.030     159.017    -123.977
  N      -31.355     162.277    -126.099
  C      -31.454     161.452    -125.035
  N      -30.520     160.614    -124.536
  C      -29.383     160.692    -125.243
  C      -29.136     161.490    -126.350
  C      -30.188     162.312    -126.783
  N      -30.090     163.144    -127.874
  N      -27.853     161.289    -126.818
  C      -27.342     160.374    -126.015
  N      -28.222     159.990    -125.042
  O      -22.346     158.529    -125.509
  O      -23.027     156.533    -126.936
  H      -29.467     156.172    -123.327
  H      -22.375     156.144    -126.320
  H      -32.408     161.462    -124.516
  H      -26.346     159.961    -126.104
  H      -28.448     159.456    -123.067
  H      -29.447     157.669    -125.029
  H      -27.252     157.028    -125.833
  H      -26.339     156.940    -122.906
  H      -24.181     157.778    -123.849
  H      -30.907     163.668    -128.145
  H      -29.247     163.139    -128.430
  H      -24.576     156.223    -124.556
  P      -27.466     154.364    -125.722
  C      -26.673     151.890    -125.414
  O      -27.485     152.954    -124.964
  O      -26.234     154.624    -126.517
  O      -28.816     154.331    -126.580
  H      -29.582     153.961    -126.108
  H      -26.666     151.106    -124.652
  H      -25.646     152.228    -125.580
  H      -27.085     151.478    -126.340
  H      -22.665     159.952    -129.282
  H      -21.627     158.756    -128.544
  H      -22.053     160.205    -127.665

 3  4  5  6  7  8  9  10  11  12  22  25  29  30  31  32 0
 6-311+G(2d,p)
 ****
 33  36  37 0
 6-311+G(2d,p)
 ****
 1  2  13  14  15  16  17  18  19  20  21  23  24  26 0
 3-21G
 ****
 27  28  34  35  38  39  40  41  42  43  44  45  46  47  48 0
 3-21G
 ****


