%nproc=1
%NoSave
%Mem=1900MB
#P OB98/GEN NMR

erre ene a

0 1
  C      -66.575     -15.949      47.438
  O      -65.896     -15.147      48.382
  H      -66.330     -15.592      46.434
  H      -67.655     -15.862      47.589
  H      -66.276     -16.997      47.520
  P      -65.785     -15.659      49.895
  C      -63.345     -14.904      50.269
  O      -64.707     -14.729      50.635
  C      -62.551     -13.606      50.464
  O      -63.048     -12.592      49.557
  C      -62.746     -13.066      51.888
  O      -61.620     -12.316      52.336
  C      -63.936     -12.132      51.732
  O      -64.016     -11.153      52.766
  C      -63.676     -11.558      50.338
  N      -67.017      -7.764      49.684
  C      -65.978      -7.863      50.586
  N      -65.815      -6.827      51.441
  N      -65.174      -8.896      50.655
  C      -65.499      -9.889      49.791
  C      -66.522      -9.916      48.869
  C      -67.377      -8.753      48.776
  O      -68.328      -8.616      48.009
  N      -66.550     -11.108      48.183
  C      -65.553     -11.801      48.693
  N      -64.874     -11.099      49.663
  O      -65.010     -17.056      49.768
  O      -67.086     -15.818      50.623
  H      -63.245     -10.563      52.668
  H      -65.218     -17.632      50.524
  H      -67.596      -6.940      49.662
  H      -65.274     -12.808      48.393
  H      -62.984     -10.708      50.397
  H      -64.850     -12.732      51.784
  H      -66.507      -6.102      51.541
  H      -62.951     -13.862      52.603
  H      -65.261      -7.008      52.281
  H      -61.495     -13.767      50.214
  H      -63.328     -15.200      49.214
  H      -62.900     -15.718      50.847
  P      -60.701     -12.966      53.478
  C      -58.477     -12.894      52.086
  O      -59.194     -12.479      53.237
  O      -60.680     -14.523      53.095
  O      -61.207     -12.737      54.864
  H      -61.249     -15.028      53.708
  H      -57.496     -12.468      52.104
  H      -58.992     -12.566      51.207
  H      -58.402     -13.961      52.078

 6  7  8  9  10  11  12  13  14  15  26  29  33  34 0
 6-311+G(2d,p)
 ****
 36  38  39  40  41 0
 6-311+G(2d,p)
 ****
 1  2  3  4  5  16  17  18  19  20  21  22  23  24  25 0
 3-21G
 ****
 27  28  30  31  32  35  37  42  43  44  45  46  47 0
 3-21G
 ****
 48  49 0
 3-21G
 ****


