%nproc=1
%NoSave
%Mem=1900MB
#P OB98/GEN NMR

erre ene a

0 1
  C      539.916     537.920     112.368
  O      539.695     539.327     112.388
  P      540.141     540.193     111.109
  C      539.105     540.949     108.872
  O      538.871     540.306     110.122
  C      537.806     541.063     108.071
  O      537.178     539.773     107.888
  C      536.749     541.928     108.762
  O      537.085     543.296     108.649
  C      535.491     541.496     108.016
  O      535.367     542.194     106.771
  C      535.758     539.999     107.767
  N      534.993     539.128     108.647
  C      533.975     538.371     108.054
  O      533.744     538.487     106.841
  N      533.249     537.507     108.846
  C      533.504     537.421     110.118
  N      532.752     536.555     110.845
  C      534.557     538.218     110.790
  C      535.240     539.044     110.010
  O      541.421     539.788     110.469
  O      540.235     541.687     111.709
  H      535.343     543.142     106.979
  H      540.912     542.181     111.202
  H      534.738     538.105     111.858
  H      536.030     539.671     110.428
  H      535.486     539.734     106.735
  H      534.590     541.719     108.590
  H      536.672     541.646     109.812
  H      538.050     541.477     107.085
  H      532.032     536.034     110.362
  H      539.845     540.373     108.293
  H      532.914     536.380     111.821
  H      539.542     541.935     109.051
  P      537.855     543.977     109.878
  C      540.323     544.489     110.504
  O      539.414     543.970     109.532
  O      537.725     542.882     111.048
  O      537.300     545.299     110.324
  H      537.663     543.322     111.900
  H      541.332     544.127     110.260
  H      540.062     544.163     111.505
  H      540.330     545.575     110.440
  H      539.568     537.491     113.284
  H      540.962     537.725     112.258
  H      539.384     537.487     111.547

 3  4  5  6  7  8  9  10  11  12  13  23  27  28  29  30  32 0
 6-311+G(2d,p)
 ****
 34  35 0
 6-311+G(2d,p)
 ****
 1  2  14  15  16  17  18  19  20  21  22  24  25  26 0
 3-21G
 ****
 31  33  36  37  38  39  40  41  42  43  44  45  46 0
 3-21G
 ****


