%nproc=1
%NoSave
%Mem=1900MB
#P OB98/GEN NMR

erre ene a

0 1
  C     -142.200      97.128     609.524
  O     -142.728      96.149     610.381
  H     -141.233      96.785     609.143
  H     -142.041      98.062     610.074
  H     -142.867      97.307     608.671
  P     -144.258      96.262     610.859
  C     -145.317      97.063     613.074
  O     -144.244      97.217     612.148
  C     -145.151      98.043     614.240
  O     -143.994      97.624     615.026
  C     -144.904      99.497     613.788
  O     -145.514     100.377     614.741
  C     -143.395      99.597     613.887
  O     -142.953     100.930     613.957
  C     -143.125      98.768     615.141
  N     -141.720      98.399     615.242
  C     -140.932      99.131     616.133
  O     -141.369     100.066     616.809
  N     -139.603      98.809     616.174
  C     -138.976      97.921     615.350
  O     -137.770      97.720     615.379
  C     -139.847      97.209     614.396
  C     -141.155      97.469     614.388
  O     -144.986      94.971     611.046
  O     -144.943      97.197     609.754
  H     -143.390     101.393     614.696
  H     -145.910      97.066     609.755
  H     -139.028      99.324     616.821
  H     -139.377      96.504     613.714
  H     -141.820      96.979     613.688
  H     -143.427      99.315     616.045
  H     -142.935      99.137     613.004
  H     -145.289      99.712     612.787
  H     -146.025      97.977     614.895
  H     -145.305      96.033     613.446
  H     -146.270      97.250     612.563
  P     -146.647     101.435     614.311
  C     -146.893     103.803     613.349
  O     -145.981     102.820     613.816
  O     -147.732     101.624     615.337
  O     -147.271     100.821     612.971
  H     -148.251     100.867     613.018
  H     -146.353     104.676     613.047
  H     -147.574     104.059     614.133
  H     -147.439     103.415     612.515

 6  7  8  9  10  11  12  13  14  15  16  26  31  32  33  34  35 0
 6-311+G(2d,p)
 ****
 36  37 0
 6-311+G(2d,p)
 ****
 1  2  3  4  5  17  18  19  20  21  22  23  24  25 0
 3-21G
 ****
 27  28  29  30  38  39  40  41  42  43  44  45 0
 3-21G
 ****


