%nproc=1
%NoSave
%Mem=1900MB
#P OB98/GEN NMR

erre ene a

0 1
  C     -105.895     719.995     234.535
  O     -107.102     719.252     234.631
  P     -107.980     719.438     235.964
  C     -110.111     719.464     234.484
  O     -109.443     718.884     235.598
  C     -111.379     718.679     234.163
  O     -111.057     717.493     233.401
  C     -112.149     718.185     235.378
  O     -112.976     719.190     235.934
  C     -112.995     717.082     234.761
  O     -114.126     717.658     234.083
  C     -112.026     716.466     233.741
  N     -111.532     711.395     233.299
  C     -112.366     712.273     232.699
  N     -112.444     713.613     232.883
  C     -111.565     714.019     233.818
  C     -110.677     713.237     234.529
  C     -110.667     711.859     234.236
  N     -109.795     710.974     234.821
  N     -109.937     714.010     235.398
  C     -110.363     715.232     235.199
  N     -111.338     715.301     234.250
  O     -108.185     721.024     236.038
  O     -107.363     718.895     237.208
  H     -114.780     717.891     234.771
  H     -108.384     721.293     236.956
  H     -113.061     711.854     231.980
  H     -109.984     716.112     235.720
  H     -112.531     716.173     232.815
  H     -113.386     716.385     235.499
  H     -111.474     717.753     236.124
  H     -112.021     719.307     233.532
  H     -109.453     719.440     233.612
  H     -109.727     710.046     234.425
  H     -109.022     711.348     235.367
  H     -110.361     720.505     234.712
  P     -112.700     719.589     237.464
  C     -112.997     722.173     237.333
  O     -113.551     720.926     237.711
  O     -111.186     720.101     237.439
  O     -112.917     718.472     238.437
  H     -110.777     719.992     238.320
  H     -113.802     722.906     237.275
  H     -112.523     722.106     236.353
  H     -112.271     722.496     238.076
  H     -105.415     719.777     233.604
  H     -105.246     719.727     235.342
  H     -106.115     721.041     234.587

 3  4  5  6  7  8  9  10  11  12  22  25  29  30  31  32 0
 6-311+G(2d,p)
 ****
 33  36  37 0
 6-311+G(2d,p)
 ****
 1  2  13  14  15  16  17  18  19  20  21  23  24  26 0
 3-21G
 ****
 27  28  34  35  38  39  40  41  42  43  44  45  46  47  48 0
 3-21G
 ****


