%nproc=1
%NoSave
%Mem=1900MB
#P OB98/GEN NMR

erre ene a

0 1
  C       44.401     430.116     293.609
  O       43.972     431.138     292.731
  H       45.491     430.154     293.681
  H       44.106     429.136     293.226
  H       43.975     430.274     294.603
  P       42.397     431.221     292.442
  C       42.183     430.118     290.122
  O       42.090     429.935     291.529
  C       42.113     428.771     289.403
  O       40.789     428.209     289.602
  C       42.350     428.870     287.892
  O       43.059     427.711     287.453
  C       40.943     428.840     287.321
  O       40.917     428.406     285.964
  C       40.242     427.910     288.307
  N       35.895     426.345     286.168
  C       37.154     425.861     286.119
  N       38.255     426.329     286.743
  C       37.944     427.379     287.525
  C       36.711     427.984     287.679
  C       35.648     427.427     286.944
  N       34.371     427.934     286.960
  N       36.807     429.065     288.534
  C       38.076     429.104     288.897
  N       38.804     428.116     288.296
  O       41.908     432.519     291.894
  O       41.777     430.796     293.855
  H       39.983     428.267     285.701
  H       42.221     430.005     294.217
  H       37.300     424.986     285.489
  H       38.515     429.831     289.574
  H       40.421     426.850     288.087
  H       40.505     429.845     287.357
  H       42.892     429.768     287.600
  H       42.826     428.083     289.873
  H       43.123     430.620     289.869
  H       33.669     427.471     286.405
  H       34.162     428.736     287.537
  H       41.352     430.760     289.811
  P       44.642     427.634     287.682
  C       45.824     428.384     285.518
  O       45.348     428.776     286.798
  O       45.250     426.277     287.556
  O       44.813     428.201     289.173
  H       45.472     427.658     289.647
  H       46.270     429.225     285.030
  H       45.007     428.022     284.929
  H       46.553     427.609     285.631

 6  7  8  9  10  11  12  13  14  15  25  28  32  33  34  35 0
 6-311+G(2d,p)
 ****
 36  39  40 0
 6-311+G(2d,p)
 ****
 1  2  3  4  5  16  17  18  19  20  21  22  23  24 0
 3-21G
 ****
 26  27  29  30  31  37  38  41  42  43  44  45  46  47 0
 3-21G
 ****
 48 0
 3-21G
 ****


