%nproc=1
%NoSave
%Mem=1900MB
#P OB98/GEN NMR

erre ene a

0 1
  C     -103.362     178.228    -329.642
  O     -103.367     179.368    -330.482
  H     -103.489     178.553    -328.606
  H     -102.410     177.699    -329.736
  H     -104.189     177.558    -329.907
  P     -103.234     179.096    -332.058
  C     -105.658     178.212    -332.468
  O     -104.717     179.260    -332.662
  C     -107.085     178.742    -332.646
  O     -107.465     179.471    -331.437
  C     -107.232     179.726    -333.823
  O     -108.575     179.612    -334.341
  C     -107.078     181.071    -333.130
  O     -107.551     182.111    -333.951
  C     -107.865     180.792    -331.848
  N     -109.385     185.214    -329.802
  C     -109.904     184.453    -330.795
  N     -109.442     183.281    -331.277
  C     -108.344     182.893    -330.602
  C     -107.698     183.562    -329.574
  C     -108.264     184.784    -329.172
  N     -107.728     185.575    -328.180
  N     -106.580     182.855    -329.158
  C     -106.555     181.778    -329.919
  N     -107.598     181.756    -330.807
  O     -102.967     177.519    -332.136
  O     -102.180     179.884    -332.763
  H     -107.622     182.951    -333.453
  H     -102.001     177.349    -332.148
  H     -110.806     184.838    -331.267
  H     -105.810     180.990    -329.886
  H     -108.949     180.783    -332.025
  H     -106.022     181.277    -332.908
  H     -106.515     179.550    -334.630
  H     -107.781     177.899    -332.739
  H     -105.531     177.811    -331.457
  H     -105.472     177.419    -333.200
  H     -108.179     186.452    -327.975
  H     -106.876     185.284    -327.728
  P     -108.792     179.422    -335.925
  C     -108.304     176.891    -336.342
  O     -109.275     177.927    -336.249
  O     -107.279     179.415    -336.465
  O     -109.577     180.503    -336.602
  H     -107.210     179.993    -337.252
  H     -108.791     175.964    -336.562
  H     -107.781     176.807    -335.412
  H     -107.609     177.122    -337.122

 6  7  8  9  10  11  12  13  14  15  25  28  32  33  34  35 0
 6-311+G(2d,p)
 ****
 36  37  40 0
 6-311+G(2d,p)
 ****
 1  2  3  4  5  16  17  18  19  20  21  22  23  24 0
 3-21G
 ****
 26  27  29  30  31  38  39 41  42  43  44  45  46  47  48 0
 3-21G
 ****


