%nproc=1
%NoSave
%Mem=1900MB
#P OB98/GEN NMR

erre ene a

0 1
  C      168.892    -467.591    -161.079
  O      167.666    -468.283    -161.167
  H      168.703    -466.595    -160.670
  H      169.328    -467.485    -162.077
  H      169.598    -468.110    -160.423
  P      167.688    -469.876    -161.306
  C      167.243    -470.221    -158.787
  O      168.111    -470.488    -159.880
  C      166.947    -471.482    -157.972
  O      168.171    -472.021    -157.421
  C      166.034    -471.204    -156.776
  O      164.649    -471.196    -157.062
  C      166.394    -472.353    -155.836
  O      165.629    -473.531    -156.152
  C      167.879    -472.581    -156.132
  N      169.380    -472.535    -151.243
  C      168.368    -473.265    -151.836
  N      167.626    -474.036    -151.007
  N      168.102    -473.226    -153.114
  C      168.863    -472.340    -153.805
  C      169.886    -471.552    -153.321
  C      170.210    -471.644    -151.913
  O      171.093    -471.014    -151.337
  N      170.437    -470.775    -154.319
  C      169.698    -471.043    -155.380
  N      168.745    -472.004    -155.120
  O      168.990    -470.158    -162.202
  O      166.467    -470.484    -161.926
  H      165.813    -473.779    -157.073
  H      168.883    -470.997    -162.686
  H      169.559    -472.629    -150.262
  H      169.822    -470.588    -156.355
  H      168.115    -473.652    -156.187
  H      166.174    -472.104    -154.790
  H      167.715    -474.009    -150.003
  H      166.320    -470.262    -156.293
  H      166.719    -474.372    -151.352
  H      166.526    -472.250    -158.635
  H      166.315    -469.827    -159.209
  H      167.666    -469.441    -158.144
  P      163.627    -470.481    -156.054
  C      163.073    -468.438    -157.579
  O      163.666    -468.910    -156.385
  O      164.377    -470.596    -154.651
  O      162.264    -471.084    -156.012
  H      164.047    -471.369    -154.149
  H      163.190    -467.376    -157.640
  H      162.031    -468.683    -157.581
  H      163.549    -468.898    -158.420

 6  7  8  9  10  11  12  13  14  15  26  29  33  34 0
 6-311+G(2d,p)
 ****
 36  38  39  40  41 0
 6-311+G(2d,p)
 ****
 1  2  3  4  5  16  17  18  19  20  21  22  23  24  25 0
 3-21G
 ****
 27  28  30  31  32  35  37  42  43  44  45  46  47 0
 3-21G
 ****
 48  49 0
 3-21G
 ****


