%nproc=1
%NoSave
%Mem=1900MB
#P OB98/GEN NMR

erre ene a

0 1
  C      182.224     -95.689     214.023
  O      181.771     -95.270     212.749
  P      182.378     -93.959     212.056
  C      180.431     -92.280     212.333
  O      181.701     -92.719     212.826
  C      180.221     -90.795     212.628
  O      180.822     -90.438     213.890
  C      180.842     -89.863     211.595
  O      180.048     -89.808     210.428
  C      180.907     -88.556     212.383
  O      179.644     -87.871     212.355
  C      181.227     -89.053     213.807
  N      182.633     -88.876     214.158
  C      183.009     -87.582     214.542
  O      182.182     -86.667     214.540
  N      184.327     -87.354     214.871
  C      185.183     -88.316     214.798
  N      186.473     -88.025     215.125
  C      184.835     -89.688     214.369
  C      183.555     -89.896     214.065
  O      182.280     -93.919     210.568
  O      183.888     -93.927     212.598
  H      179.793     -87.013     212.803
  H      184.445     -94.616     212.154
  H      185.592     -90.459     214.314
  H      183.208     -90.868     213.743
  H      180.621     -88.511     214.548
  H      181.654     -87.865     211.976
  H      181.862     -90.195     211.358
  H      179.141     -90.613     212.702
  H      186.675     -87.067     215.386
  H      179.650     -92.861     212.829
  H      187.233     -88.693     215.069
  H      180.376     -92.476     211.261
  P      180.712     -90.068     208.994
  C      181.159     -87.701     208.105
  O      181.720     -88.851     208.699
  O      179.756     -90.387     207.891
  O      181.704     -91.303     209.259
  H      181.615     -91.943     208.529
  H      181.844     -86.854     208.262
  H      180.192     -87.462     208.549
  H      181.040     -87.864     207.033
  H      181.702     -96.577     214.313
  H      182.038     -94.916     214.740
  H      183.274     -95.890     213.980

 3  4  5  6  7  8  9  10  11  12  13  23  27  28  29  30  32 0
 6-311+G(2d,p)
 ****
 34  35 0
 6-311+G(2d,p)
 ****
 1  2  14  15  16  17  18  19  20  21  22  24  25  26 0
 3-21G
 ****
 31  33  36  37  38  39  40  41  42  43  44  45  46 0
 3-21G
 ****


