%nproc=1
%NoSave
%Mem=1900MB
#P OB98/GEN NMR

erre ene a

0 1
  C     -945.787    -284.669     -47.927
  O     -945.009    -283.510     -48.162
  P     -945.789    -282.139     -48.428
  C     -944.517    -280.401     -46.940
  O     -944.728    -280.945     -48.241
  C     -943.322    -279.443     -46.965
  O     -942.087    -280.195     -47.002
  C     -943.292    -278.544     -48.184
  O     -944.192    -277.448     -48.046
  C     -941.825    -278.108     -48.217
  O     -941.595    -277.018     -47.329
  C     -941.110    -279.393     -47.720
  N     -940.480    -280.139     -48.796
  C     -939.173    -279.784     -49.102
  O     -938.577    -278.874     -48.520
  N     -938.579    -280.482     -50.122
  C     -939.178    -281.445     -50.898
  O     -938.620    -281.994     -51.839
  C     -940.583    -281.759     -50.552
  C     -941.159    -281.100     -49.538
  O     -946.752    -281.979     -47.165
  O     -946.538    -282.089     -49.716
  H     -940.639    -276.797     -47.398
  H     -947.593    -281.567     -47.443
  H     -937.625    -280.256     -50.344
  H     -941.084    -282.511     -51.128
  H     -942.185    -281.300     -49.273
  H     -940.345    -279.119     -46.980
  H     -941.507    -277.789     -49.215
  H     -943.517    -279.117     -49.089
  H     -943.339    -278.851     -46.041
  H     -944.323    -281.221     -46.233
  H     -945.428    -279.880     -46.620
  P     -944.537    -276.616     -49.382
  C     -946.838    -275.739     -48.484
  O     -945.512    -275.449     -48.895
  O     -945.479    -277.663     -50.142
  O     -943.317    -276.208     -50.156
  H     -946.007    -278.213     -49.530
  H     -946.870    -276.711     -47.954
  H     -947.493    -275.778     -49.349
  H     -947.174    -274.963     -47.809
  H     -945.140    -285.506     -47.766
  H     -946.410    -284.858     -48.776
  H     -946.398    -284.519     -47.062

 3  4  5  6  7  8  9  10  11  12  13  23  28  29  30  31  32 0
 6-311+G(2d,p)
 ****
 33  34 0
 6-311+G(2d,p)
 ****
 1  2  14  15  16  17  18  19  20  21  22  24  25  26 0
 3-21G
 ****
 27  35  36  37  38  39  40  41  42  43  44  45 0
 3-21G
 ****


