%nproc=1
%NoSave
%Mem=1900MB
#P OB98/GEN NMR

erre ene a

0 1
  C     -257.599     205.226      36.266
  O     -257.084     204.225      37.126
  H     -258.544     205.591      36.678
  H     -257.781     204.808      35.273
  H     -256.897     206.062      36.194
  P     -255.671     203.590      36.713
  C     -256.534     201.199      36.128
  O     -256.003     202.429      35.655
  C     -256.301     200.090      35.092
  O     -256.796     200.556      33.800
  C     -254.822     199.723      34.902
  O     -254.740     198.338      34.525
  C     -254.438     200.588      33.712
  O     -253.237     200.132      33.136
  C     -255.701     200.440      32.868
  N     -256.005     201.158      27.828
  C     -255.996     200.037      28.581
  N     -255.924     199.929      29.924
  C     -255.880     201.148      30.492
  C     -255.877     202.377      29.858
  C     -255.939     202.359      28.456
  N     -255.924     203.494      27.682
  N     -255.797     203.400      30.786
  C     -255.756     202.797      31.957
  N     -255.807     201.436      31.828
  O     -255.235     202.789      38.030
  O     -254.629     204.560      36.273
  H     -253.363     199.269      32.695
  H     -254.675     203.358      38.593
  H     -256.057     199.102      28.032
  H     -255.683     203.284      32.919
  H     -255.766     199.455      32.388
  H     -254.284     201.629      34.013
  H     -254.213     199.898      35.792
  H     -256.902     199.215      35.364
  H     -257.605     201.327      36.308
  H     -256.038     200.927      37.067
  H     -255.942     203.395      26.678
  H     -255.840     204.398      28.133
  P     -255.055     197.209      35.627
  C     -252.810     197.667      36.873
  O     -254.212     197.479      36.962
  O     -254.310     195.928      35.008
  O     -256.502     196.908      35.836
  H     -254.897     195.148      35.060
  H     -252.410     197.834      37.851
  H     -252.602     198.514      36.253
  H     -252.359     196.795      36.448

 6  7  8  9  10  11  12  13  14  15  25  28  32  33  34  35 0
 6-311+G(2d,p)
 ****
 36  37  40 0
 6-311+G(2d,p)
 ****
 1  2  3  4  5  16  17  18  19  20  21  22  23  24 0
 3-21G
 ****
 26  27  29  30  31  38  39 41  42  43  44  45  46  47  48 0
 3-21G
 ****


