%nproc=1
%NoSave
%Mem=1900MB
#P OB98/GEN NMR

erre ene a

0 1
  C     -239.990     250.289     180.206
  O     -239.525     250.021     178.902
  H     -239.474     249.624     180.904
  H     -241.063     250.091     180.260
  H     -239.792     251.324     180.497
  P     -239.751     251.120     177.763
  C     -239.780     249.104     176.152
  O     -239.386     250.456     176.346
  C     -239.381     248.592     174.768
  O     -239.991     249.416     173.751
  C     -237.868     248.650     174.534
  O     -237.159     247.509     174.984
  C     -237.789     248.781     173.016
  O     -237.775     247.493     172.381
  C     -239.071     249.542     172.659
  N     -236.073     253.021     170.409
  C     -235.828     251.678     170.632
  N     -234.620     251.225     170.236
  N     -236.686     250.875     171.203
  C     -237.808     251.494     171.634
  C     -238.154     252.819     171.490
  C     -237.230     253.687     170.790
  O     -237.407     254.877     170.554
  N     -239.357     253.096     172.091
  C     -239.692     251.960     172.670
  N     -238.825     250.940     172.354
  O     -238.536     252.144     177.987
  O     -241.064     251.842     177.815
  H     -238.578     247.011     172.657
  H     -238.814     253.041     177.731
  H     -235.387     253.583     169.942
  H     -240.572     251.809     173.288
  H     -239.560     249.107     171.778
  H     -236.869     249.290     172.716
  H     -233.891     251.816     169.871
  H     -237.443     249.557     174.977
  H     -234.327     250.298     170.549
  H     -239.769     247.574     174.632
  H     -240.865     249.078     176.262
  H     -239.355     248.467     176.933
  P     -235.981     247.643     176.055
  C     -234.118     245.938     175.334
  O     -235.227     246.241     176.154
  O     -236.764     247.740     177.445
  O     -235.058     248.799     175.851
  H     -236.839     248.669     177.735
  H     -233.765     244.954     175.561
  H     -233.337     246.647     175.514
  H     -234.411     245.984     174.306

 6  7  8  9  10  11  12  13  14  15  26  29  33  34 0
 6-311+G(2d,p)
 ****
 36  38  39  40  41 0
 6-311+G(2d,p)
 ****
 1  2  3  4  5  16  17  18  19  20  21  22  23  24  25 0
 3-21G
 ****
 27  28  30  31  32  35  37  42  43  44  45  46  47 0
 3-21G
 ****
 48  49 0
 3-21G
 ****


