%nproc=1
%NoSave
%Mem=1900MB
#P OB98/GEN NMR

erre ene a

0 1
  C      -83.782     236.331      72.075
  O      -84.203     237.551      71.507
  H      -84.637     235.862      72.577
  H      -82.995     236.503      72.811
  H      -83.420     235.660      71.290
  P      -83.075     238.458      70.810
  C      -83.544     237.391      68.485
  O      -82.588     237.666      69.497
  C      -83.119     236.134      67.722
  O      -83.216     234.983      68.592
  C      -84.005     235.808      66.530
  O      -83.700     236.592      65.388
  C      -83.673     234.340      66.316
  O      -82.488     234.167      65.522
  C      -83.457     233.830      67.749
  N      -84.587     233.044      68.220
  C      -84.864     231.883      67.494
  O      -84.211     231.536      66.512
  N      -85.957     231.168      67.907
  C      -86.796     231.503      68.920
  O      -87.790     230.839      69.204
  C      -86.467     232.736      69.645
  C      -85.401     233.449      69.274
  O      -81.840     238.334      71.818
  O      -83.472     239.882      70.571
  H      -81.734     239.170      72.316
  H      -81.765     234.617      66.017
  H      -86.173     230.323      67.387
  H      -87.120     233.039      70.462
  H      -85.135     234.361      69.776
  H      -82.559     233.208      67.807
  H      -84.475     233.825      65.797
  H      -85.060     235.895      66.804
  H      -82.070     236.247      67.412
  H      -83.592     238.225      67.780
  H      -84.526     237.258      68.944
  P      -84.722     237.782      65.006
  C      -82.764     239.513      64.715
  O      -83.963     239.144      65.378
  O      -85.818     237.603      66.155
  O      -85.237     237.685      63.609
  H      -85.444     237.195      66.966
  H      -82.415     240.447      65.102
  H      -82.952     239.610      63.666
  H      -82.021     238.760      64.877

 6  7  8  9  10  11  12  13  14  15  16  27  31  32  33  34  35 0
 6-311+G(2d,p)
 ****
 36  37 0
 6-311+G(2d,p)
 ****
 1  2  3  4  5  17  18  19  20  21  22  23  24  25 0
 3-21G
 ****
 26  28  29  30  38  39  40  41  42  43  44  45 0
 3-21G
 ****


