%nproc=1
%NoSave
%Mem=1900MB
#P OB98/GEN NMR

erre ene a

0 1
  C      159.056      73.745      -6.405
  O      159.107      74.909      -7.208
  P      158.235      75.007      -8.548
  C      158.230      73.981     -10.907
  O      158.913      74.070      -9.661
  C      159.220      73.718     -12.042
  O      160.190      74.791     -12.136
  C      160.045      72.456     -11.867
  O      159.282      71.282     -12.094
  C      161.171      72.696     -12.868
  O      160.744      72.373     -14.201
  C      161.384      74.219     -12.729
  N      162.572      74.546     -11.950
  C      163.736      73.842     -12.275
  O      163.707      72.945     -13.123
  N      164.904      74.169     -11.629
  C      164.884      75.030     -10.658
  N      166.081      75.359     -10.094
  C      163.644      75.672     -10.177
  C      162.540      75.407     -10.877
  O      157.924      76.395      -9.004
  O      156.889      74.212      -8.194
  H      156.120      74.766      -8.436
  H      160.691      71.396     -14.244
  H      163.672      76.329      -9.317
  H      161.588      75.853     -10.607
  H      161.473      74.683     -13.721
  H      162.058      72.092     -12.653
  H      160.465      72.426     -10.852
  H      158.654      73.682     -12.983
  H      166.912      74.907     -10.463
  H      157.705      74.926     -11.087
  H      166.220      76.224      -9.579
  H      157.486      73.178     -10.854
  P      159.685      69.981     -11.250
  C      161.855      68.609     -10.913
  O      161.159      69.552     -11.705
  O      158.746      68.835     -11.874
  O      159.482      70.105      -9.774
  H      158.466      68.224     -11.169
  H      162.659      68.172     -11.513
  H      161.193      67.807     -10.569
  H      162.298      69.112     -10.047
  H      159.701      73.866      -5.560
  H      159.376      72.901      -6.980
  H      158.053      73.588      -6.068

 3  4  5  6  7  8  9  10  11  12  13  24  27  28  29  30  32 0
 6-311+G(2d,p)
 ****
 34  35 0
 6-311+G(2d,p)
 ****
 1  2  14  15  16  17  18  19  20  21  22  23  25  26 0
 3-21G
 ****
 31  33  36  37  38  39  40  41  42  43  44  45  46 0
 3-21G
 ****


