%nproc=1
%NoSave
%Mem=1900MB
#P OB98/GEN NMR

erre ene a

0 1
  C      354.264    -689.384    -170.793
  O      354.716    -688.024    -170.774
  P      355.191    -687.357    -172.157
  C      355.631    -684.953    -172.981
  O      355.600    -685.834    -171.859
  C      356.035    -683.537    -172.556
  O      355.042    -682.926    -171.713
  C      357.339    -683.510    -171.751
  O      358.463    -683.719    -172.591
  C      357.250    -682.131    -171.099
  O      357.694    -681.109    -172.013
  C      355.731    -681.984    -170.852
  N      355.361    -682.172    -169.456
  C      355.410    -681.030    -168.644
  O      355.775    -679.959    -169.111
  N      355.036    -681.141    -167.325
  C      354.667    -682.294    -166.863
  N      354.314    -682.343    -165.538
  C      354.613    -683.534    -167.664
  C      354.981    -683.396    -168.944
  O      354.276    -687.557    -173.313
  O      356.613    -688.045    -172.416
  H      357.735    -680.278    -171.486
  H      356.766    -688.098    -173.390
  H      354.298    -684.469    -167.233
  H      354.985    -684.259    -169.618
  H      355.392    -680.990    -171.161
  H      357.868    -682.061    -170.208
  H      357.299    -684.287    -170.972
  H      356.151    -682.939    -173.474
  H      354.368    -681.491    -165.000
  H      354.640    -684.927    -173.448
  H      353.963    -683.179    -165.101
  H      356.326    -685.359    -173.727
  P      359.239    -685.112    -172.455
  C      360.316    -686.473    -174.386
  O      360.229    -685.234    -173.703
  O      358.092    -686.186    -172.783
  O      359.846    -685.375    -171.115
  H      358.240    -687.002    -172.264
  H      360.769    -686.308    -175.354
  H      359.315    -686.916    -174.528
  H      360.935    -687.176    -173.821
  H      353.985    -689.681    -169.804
  H      355.051    -690.017    -171.146
  H      353.419    -689.470    -171.443

 3  4  5  6  7  8  9  10  11  12  13  23  27  28  29  30  32 0
 6-311+G(2d,p)
 ****
 34  35 0
 6-311+G(2d,p)
 ****
 1  2  14  15  16  17  18  19  20  21  22  24  25  26 0
 3-21G
 ****
 31  33  36  37  38  39  40  41  42  43  44  45  46 0
 3-21G
 ****


