%nproc=1
%NoSave
%Mem=1900MB
#P OB98/GEN NMR

erre ene a

0 1
  C       96.505     496.891    -200.873
  O       95.728     497.965    -200.384
  H       96.624     496.155    -200.074
  H       97.495     497.243    -201.172
  H       96.009     496.409    -201.719
  P       95.288     499.126    -201.396
  C       96.932     500.749    -200.254
  O       95.588     500.521    -200.664
  C       96.997     501.989    -199.366
  O       96.680     503.175    -200.132
  C       96.010     501.971    -198.205
  O       96.455     501.107    -197.180
  C       95.984     503.450    -197.839
  O       97.134     503.808    -197.056
  C       96.050     504.114    -199.235
  N       94.735     504.523    -199.733
  C       94.682     505.747    -200.395
  O       95.664     506.466    -200.564
  N       93.439     506.140    -200.822
  C       92.267     505.487    -200.570
  O       91.161     505.980    -200.773
  C       92.394     504.166    -199.934
  C       93.602     503.759    -199.536
  O       93.918     498.996    -201.976
  O       96.412     499.072    -202.539
  H       96.060     498.604    -203.317
  H       97.902     503.383    -197.484
  H       93.380     507.048    -201.258
  H       91.491     503.587    -199.778
  H       93.717     502.802    -199.037
  H       96.693     505.003    -199.206
  H       95.102     503.718    -197.252
  H       95.016     501.678    -198.559
  H       98.027     502.094    -199.000
  H       97.544     500.909    -201.147
  H       97.299     499.868    -199.718
  P       95.458     500.063    -196.487
  C       95.247     501.599    -194.445
  O       95.530     500.285    -194.899
  O       95.621     498.645    -196.923
  O       93.994     500.611    -196.860
  H       93.479     499.888    -197.267
  H       95.324     501.632    -193.378
  H       94.256     501.873    -194.740
  H       95.948     502.283    -194.874

 6  7  8  9  10  11  12  13  14  15  16  27  31  32  33  34  35 0
 6-311+G(2d,p)
 ****
 36  37 0
 6-311+G(2d,p)
 ****
 1  2  3  4  5  17  18  19  20  21  22  23  24  25 0
 3-21G
 ****
 26  28  29  30  38  39  40  41  42  43  44  45 0
 3-21G
 ****


