%nproc=1
%NoSave
%Mem=1900MB
#P OB98/GEN NMR

erre ene a

0 1
  C      189.572     -33.732    -372.253
  O      190.556     -33.060    -371.477
  P      192.039     -32.934    -372.078
  C      193.099     -34.598    -370.397
  O      192.797     -34.311    -371.756
  C      194.421     -35.353    -370.273
  O      194.232     -36.710    -370.750
  C      195.580     -34.747    -371.073
  O      196.786     -34.996    -370.335
  C      195.596     -35.582    -372.340
  O      196.850     -35.525    -373.013
  C      195.230     -36.949    -371.769
  N      196.385     -39.786    -375.874
  C      197.151     -39.021    -375.059
  N      196.770     -38.295    -373.987
  C      195.446     -38.413    -373.782
  C      194.534     -39.123    -374.542
  C      195.047     -39.843    -375.637
  N      194.276     -40.631    -376.456
  N      193.261     -38.979    -374.032
  C      193.397     -38.191    -372.983
  N      194.706     -37.844    -372.782
  O      192.729     -31.882    -371.088
  O      192.112     -32.472    -373.496
  H      197.000     -34.608    -373.305
  H      192.898     -31.041    -371.559
  H      198.212     -38.996    -375.304
  H      192.593     -37.847    -372.348
  H      196.089     -37.444    -371.296
  H      194.821     -35.221    -373.035
  H      195.473     -33.673    -371.277
  H      194.685     -35.415    -369.208
  H      192.301     -35.217    -369.984
  H      194.735     -41.215    -377.130
  H      193.320     -40.830    -376.176
  H      193.143     -33.661    -369.827
  P      197.770     -33.751    -370.113
  C      199.391     -34.479    -372.006
  O      198.509     -33.491    -371.511
  O      198.925     -34.356    -369.181
  O      197.118     -32.558    -369.486
  H      199.322     -33.648    -368.637
  H      199.343     -34.485    -373.097
  H      199.137     -35.477    -371.632
  H      200.413     -34.232    -371.691
  H      188.642     -33.735    -371.724
  H      189.885     -34.740    -372.430
  H      189.449     -33.227    -373.188

 3  4  5  6  7  8  9  10  11  12  22  25  29  30  31  32 0
 6-311+G(2d,p)
 ****
 33  36  37 0
 6-311+G(2d,p)
 ****
 1  2  13  14  15  16  17  18  19  20  21  23  24  26 0
 3-21G
 ****
 27  28  34  35  38  39  40  41  42  43  44  45  46  47  48 0
 3-21G
 ****


