%nproc=1
%NoSave
%Mem=1900MB
#P OB98/GEN NMR

erre ene a

0 1
  C       32.440     134.166      47.969
  O       32.614     133.983      46.582
  H       31.378     134.057      48.204
  H       32.761     135.173      48.250
  H       33.004     133.428      48.544
  P       34.077     133.651      46.027
  C       34.473     136.031      45.112
  O       34.916     135.021      46.008
  C       35.632     136.649      44.330
  O       35.138     137.655      43.418
  C       36.635     137.359      45.240
  O       37.617     136.524      45.826
  C       37.270     138.361      44.281
  O       38.352     137.758      43.552
  C       36.115     138.709      43.339
  N       36.165     143.779      42.717
  C       37.065     142.838      42.256
  N       38.143     143.315      41.597
  N       36.923     141.553      42.445
  C       35.849     141.230      43.202
  C       34.895     142.075      43.726
  C       35.032     143.493      43.464
  O       34.267     144.369      43.856
  N       33.947     141.383      44.440
  C       34.367     140.135      44.410
  N       35.503     139.988      43.650
  O       33.834     133.375      44.465
  O       34.762     132.489      46.679
  H       38.003     136.989      43.066
  H       34.527     132.784      44.121
  H       36.310     144.753      42.518
  H       33.876     139.299      44.898
  H       36.449     138.757      42.295
  H       37.689     139.220      44.813
  H       38.354     144.299      41.530
  H       36.110     137.916      46.022
  H       38.946     142.694      41.481
  H       36.114     135.872      43.725
  H       33.982     136.796      45.719
  H       33.720     135.629      44.428
  P       37.964     136.667      47.382
  C       40.117     138.072      46.975
  O       38.829     138.006      47.548
  O       39.027     135.494      47.617
  O       36.796     136.550      48.300
  H       38.582     134.703      47.973
  H       40.550     139.029      47.180
  H       40.044     137.933      45.917
  H       40.734     137.304      47.394

 6  7  8  9  10  11  12  13  14  15  26  29  33  34 0
 6-311+G(2d,p)
 ****
 36  38  39  40  41 0
 6-311+G(2d,p)
 ****
 1  2  3  4  5  16  17  18  19  20  21  22  23  24  25 0
 3-21G
 ****
 27  28  30  31  32  35  37  42  43  44  45  46  47 0
 3-21G
 ****
 48  49 0
 3-21G
 ****


