%nproc=1
%NoSave
%Mem=1900MB
#P OB98/GEN NMR

erre ene a

0 1
  C     -214.147     -94.773      26.436
  O     -214.943     -93.607      26.369
  P     -214.254     -92.162      26.311
  C     -214.478     -92.364      23.759
  O     -213.649     -91.951      24.841
  C     -214.461     -91.321      22.644
  O     -215.421     -90.273      22.906
  C     -213.129     -90.607      22.486
  O     -212.145     -91.438      21.895
  C     -213.542     -89.403      21.648
  O     -213.648     -89.757      20.261
  C     -214.937     -89.086      22.230
  N     -214.917     -87.937      23.122
  C     -215.611     -86.804      22.678
  O     -216.121     -86.783      21.561
  N     -215.694     -85.719      23.516
  C     -215.041     -85.717      24.637
  N     -215.211     -84.643      25.452
  C     -214.167     -86.831      25.063
  C     -214.173     -87.906      24.277
  O     -213.309     -91.861      27.425
  O     -215.492     -91.143      26.332
  H     -215.331     -90.467      27.020
  H     -212.751     -90.003      19.966
  H     -213.593     -86.753      25.974
  H     -213.578     -88.780      24.523
  H     -215.649     -88.893      21.420
  H     -212.825     -88.580      21.718
  H     -212.774     -90.265      23.465
  H     -214.742     -91.820      21.707
  H     -215.830     -83.909      25.135
  H     -215.501     -92.491      24.129
  H     -215.023     -84.681      26.450
  H     -214.125     -93.333      23.387
  P     -210.635     -90.895      21.902
  C     -210.134     -90.878      24.440
  O     -210.411     -90.117      23.282
  O     -210.661     -89.725      20.806
  O     -209.604     -91.923      21.574
  H     -209.816     -89.713      20.321
  H     -209.672     -90.226      25.187
  H     -209.451     -91.704      24.224
  H     -211.069     -91.275      24.850
  H     -214.780     -95.635      26.467
  H     -213.542     -94.742      27.318
  H     -213.516     -94.824      25.573

 3  4  5  6  7  8  9  10  11  12  13  24  27  28  29  30  32 0
 6-311+G(2d,p)
 ****
 34  35 0
 6-311+G(2d,p)
 ****
 1  2  14  15  16  17  18  19  20  21  22  23  25  26 0
 3-21G
 ****
 31  33  36  37  38  39  40  41  42  43  44  45  46 0
 3-21G
 ****


