%nproc=1
%NoSave
%Mem=1900MB
#P OB98/GEN NMR

erre ene a

0 1
  C        4.628      18.133     -46.247
  O        4.198      16.893     -46.772
  P        2.782      16.289     -46.337
  C        3.110      14.124     -44.993
  O        2.981      15.540     -44.934
  C        4.504      13.740     -45.487
  O        5.516      14.345     -44.656
  C        4.784      12.243     -45.448
  O        4.143      11.581     -46.521
  C        6.307      12.227     -45.507
  O        6.763      12.374     -46.862
  C        6.667      13.471     -44.682
  N       10.402      11.510     -41.816
  C       10.223      11.555     -43.153
  N        9.177      12.062     -43.842
  C        8.246      12.538     -43.000
  C        8.273      12.530     -41.614
  C        9.430      12.005     -41.014
  N        9.652      12.010     -39.654
  N        7.112      13.080     -41.106
  C        6.398      13.404     -42.164
  N        7.070      13.155     -43.327
  O        2.077      15.494     -47.384
  O        1.926      17.581     -45.936
  H        6.447      11.597     -47.360
  H        1.141      17.640     -46.513
  H       11.028      11.137     -43.750
  H        5.405      13.834     -42.139
  H        7.485      14.040     -45.140
  H        6.733      11.298     -45.120
  H        4.458      11.827     -44.488
  H        4.624      14.130     -46.506
  H        2.354      13.738     -45.682
  H       10.573      11.743     -39.341
  H        9.095      12.635     -39.077
  H        2.931      13.702     -44.000
  P        3.851      10.010     -46.428
  C        5.262       8.528     -47.973
  O        5.226       9.258     -46.762
  O        2.659       9.528     -47.186
  O        3.681       9.753     -44.856
  H        3.044       9.029     -44.713
  H        4.738       7.578     -47.843
  H        6.304       8.328     -48.231
  H        4.797       9.095     -48.785
  H        5.590      18.375     -46.647
  H        4.692      18.066     -45.181
  H        3.928      18.896     -46.515

 3  4  5  6  7  8  9  10  11  12  22  25  29  30  31  32 0
 6-311+G(2d,p)
 ****
 33  36  37 0
 6-311+G(2d,p)
 ****
 1  2  13  14  15  16  17  18  19  20  21  23  24  26 0
 3-21G
 ****
 27  28  34  35  38  39  40  41  42  43  44  45  46  47  48 0
 3-21G
 ****


