%nproc=1
%NoSave
%Mem=1900MB
#P OB98/GEN NMR

erre ene a

0 1
  C      396.815    -263.854     -52.969
  O      395.596    -264.346     -52.458
  P      394.171    -264.005     -53.082
  C      392.325    -262.343     -52.264
  O      393.704    -262.573     -52.532
  C      392.108    -260.944     -51.668
  O      392.708    -260.906     -50.349
  C      392.800    -259.858     -52.508
  O      392.035    -258.673     -52.680
  C      394.158    -259.718     -51.824
  O      394.818    -258.492     -52.112
  C      393.793    -259.955     -50.362
  N      398.498    -259.190     -48.597
  C      397.656    -258.303     -49.235
  N      398.200    -257.127     -49.609
  N      396.401    -258.571     -49.509
  C      396.030    -259.826     -49.183
  C      396.775    -260.794     -48.544
  C      398.147    -260.474     -48.213
  O      398.965    -261.271     -47.750
  N      396.088    -261.976     -48.432
  C      394.939    -261.736     -49.031
  N      394.868    -260.456     -49.531
  O      393.165    -265.110     -53.101
  O      394.558    -263.668     -54.614
  H      395.760    -258.605     -51.903
  H      393.811    -263.973     -55.173
  H      399.476    -258.960     -48.480
  H      394.139    -262.458     -49.156
  H      393.444    -259.039     -49.884
  H      394.801    -260.520     -52.204
  H      399.199    -256.954     -49.540
  H      392.961    -260.210     -53.534
  H      397.688    -256.571     -50.284
  H      391.032    -260.762     -51.556
  H      392.020    -263.110     -51.546
  H      391.729    -262.475     -53.171
  P      392.018    -257.660     -53.912
  C      393.687    -256.161     -55.155
  O      393.526    -257.215     -54.230
  O      391.368    -256.317     -53.336
  O      391.251    -258.136     -55.102
  H      390.779    -255.925     -54.012
  H      394.729    -256.140     -55.493
  H      393.450    -255.208     -54.675
  H      393.039    -256.306     -56.027
  H      397.626    -264.225     -52.377
  H      396.810    -262.785     -52.936
  H      396.934    -264.179     -53.982

 3  4  5  6  7  8  9  10  11  12  23  26  30  31 0
 6-311+G(2d,p)
 ****
 33  35  36  37  38 0
 6-311+G(2d,p)
 ****
 1  2  13  14  15  16  17  18  19  20  21  22  24  25 0
 3-21G
 ****
 27  28  29  32  34  39  40  41  42  43  44  45  46  47  48  49 0
 3-21G
 ****


