%nproc=1
%NoSave
%Mem=1900MB
#P OB98/GEN NMR

erre ene a

0 1
  C      180.595     -70.494    -263.629
  O      179.632     -70.728    -262.592
  P      178.166     -70.096    -262.774
  C      177.006     -72.298    -263.541
  O      177.380     -70.966    -263.870
  C      175.580     -72.585    -264.003
  O      175.423     -72.321    -265.415
  C      175.166     -74.038    -263.819
  O      174.843     -74.298    -262.465
  C      173.978     -74.157    -264.772
  O      172.740     -73.836    -264.121
  C      174.311     -73.120    -265.874
  N      174.596     -73.733    -267.160
  C      173.487     -73.947    -267.996
  O      172.361     -73.643    -267.615
  N      173.698     -74.523    -269.225
  C      174.899     -74.885    -269.580
  N      175.035     -75.453    -270.800
  C      176.081     -74.696    -268.724
  C      175.857     -74.123    -267.532
  O      178.460     -68.717    -263.533
  O      177.444     -69.876    -261.487
  H      172.743     -72.867    -264.002
  H      177.808     -68.046    -263.267
  H      177.062     -75.018    -269.051
  H      176.676     -73.948    -266.834
  H      173.469     -72.425    -266.004
  H      173.883     -75.176    -265.161
  H      175.979     -74.704    -264.161
  H      174.898     -71.930    -263.447
  H      174.200     -75.560    -271.365
  H      177.092     -72.464    -262.463
  H      175.926     -75.774    -271.174
  H      177.726     -72.984    -264.025
  P      175.048     -75.784    -261.914
  C      177.578     -75.657    -261.439
  O      176.571     -76.158    -262.299
  O      174.230     -76.654    -262.987
  O      174.631     -76.067    -260.516
  H      174.197     -77.587    -262.705
  H      178.531     -76.151    -261.671
  H      177.326     -75.875    -260.385
  H      177.691     -74.577    -261.579
  H      181.518     -70.971    -263.373
  H      180.755     -69.442    -263.736
  H      180.230     -70.895    -264.552

 3  4  5  6  7  8  9  10  11  12  13  21  23  27  28  29  30  32 0
 6-311+G(2d,p)
 ****
 34  35 0
 6-311+G(2d,p)
 ****
 1  2  14  15  16  17  18  19  20  22  24  25  26 0
 3-21G
 ****
 31  33  36  37  38  39  40  41  42  43  44  45  46 0
 3-21G
 ****


