%nproc=1
%NoSave
%Mem=1900MB
#P OB98/GEN NMR

erre ene a

0 1
  C     -307.901    -889.820     172.918
  O     -307.030    -890.048     174.027
  P     -305.682    -890.881     173.777
  C     -304.228    -888.665     173.784
  O     -304.421    -889.993     174.205
  C     -303.995    -887.762     175.011
  O     -305.219    -887.612     175.757
  C     -302.958    -888.327     175.980
  O     -301.626    -887.936     175.606
  C     -303.403    -887.740     177.307
  O     -303.014    -886.348     177.404
  C     -304.936    -887.868     177.174
  N     -305.574    -889.140     177.564
  C     -305.446    -889.617     178.869
  O     -304.812    -889.037     179.757
  N     -306.080    -890.807     179.153
  C     -306.955    -891.463     178.334
  O     -307.533    -892.484     178.656
  C     -307.179    -890.831     177.021
  C     -306.490    -889.732     176.701
  O     -305.565    -890.961     172.192
  O     -305.677    -892.228     174.424
  H     -303.119    -886.095     178.328
  H     -305.645    -891.889     171.902
  H     -305.927    -891.192     180.066
  H     -307.900    -891.300     176.358
  H     -306.654    -889.268     175.725
  H     -305.438    -887.071     177.752
  H     -302.945    -888.253     178.145
  H     -303.031    -889.411     176.043
  H     -303.686    -886.758     174.680
  H     -305.089    -888.296     173.220
  H     -303.357    -888.619     173.116
  P     -300.433    -888.997     175.688
  C     -300.178    -889.367     173.160
  O     -299.601    -888.818     174.328
  O     -300.832    -890.394     176.035
  O     -299.447    -888.382     176.792
  H     -299.613    -888.761     177.676
  H     -299.611    -889.041     172.298
  H     -301.227    -889.034     173.055
  H     -300.161    -890.464     173.221
  H     -308.750    -889.255     173.242
  H     -308.227    -890.759     172.522
  H     -307.378    -889.276     172.160

 3  4  5  6  7  8  9  10  11  12  13  23  28  29  30  31  32 0
 6-311+G(2d,p)
 ****
 33  34 0
 6-311+G(2d,p)
 ****
 1  2  14  15  16  17  18  19  20  21  22  24  25  26  27 0
 3-21G
 ****
 35  36  37  38  39  40  41  42  43  44  45 0
 3-21G
 ****


