%nproc=1
%NoSave
%Mem=1900MB
#P OB98/GEN NMR

erre ene a

0 1
  C      168.869    -235.767     510.563
  O      168.570    -236.948     509.811
  P      168.874    -238.417     510.374
  C      166.983    -239.261     508.837
  O      168.298    -239.499     509.334
  C      166.681    -240.117     507.606
  O      167.450    -239.675     506.469
  C      166.997    -241.600     507.774
  O      165.983    -242.248     508.515
  C      167.119    -242.049     506.321
  O      165.819    -242.281     505.752
  C      167.777    -240.826     505.666
  N      171.563    -242.462     502.642
  C      170.223    -242.442     502.477
  N      169.282    -241.990     503.333
  C      169.847    -241.503     504.454
  C      171.196    -241.462     504.762
  C      172.082    -241.977     503.794
  N      173.444    -242.012     503.972
  N      171.396    -240.918     506.011
  C      170.184    -240.614     506.439
  N      169.216    -240.948     505.536
  O      168.436    -238.637     511.788
  O      170.459    -238.589     510.244
  H      165.946    -242.555     504.826
  H      170.784    -239.208     510.923
  H      169.859    -242.839     501.537
  H      169.964    -240.150     507.397
  H      167.371    -240.635     504.666
  H      167.697    -242.972     506.205
  H      167.967    -241.726     508.273
  H      165.617    -239.984     507.354
  H      166.901    -238.200     508.573
  H      174.008    -242.429     503.243
  H      173.833    -241.694     504.848
  H      166.262    -239.481     509.631
  P      166.220    -242.626     510.050
  C      163.753    -242.016     510.403
  O      164.782    -242.934     510.693
  O      167.061    -241.663     510.828
  O      166.900    -244.074     509.991
  H      167.486    -244.187     510.760
  H      163.851    -241.145     511.056
  H      162.788    -242.497     510.598
  H      163.791    -241.699     509.361
  H      168.585    -234.903     509.999
  H      169.919    -235.730     510.767
  H      168.327    -235.785     511.485

 3  4  5  6  7  8  9  10  11  12  22  25  29  30  31  32 0
 6-311+G(2d,p)
 ****
 33  36  37 0
 6-311+G(2d,p)
 ****
 1  2  13  14  15  16  17  18  19  20  21  23  24  26 0
 3-21G
 ****
 27  28  34  35  38  39  40  41  42  43  44  45  46  47  48 0
 3-21G
 ****


