%nproc=1
%NoSave
%Mem=1900MB
#P OB98/GEN NMR

erre ene a

0 1
  C      -30.898     507.928    -180.274
  O      -32.050     507.159    -179.997
  H      -30.679     507.863    -181.344
  H      -30.047     507.529    -179.717
  H      -31.057     508.979    -180.012
  P      -32.736     507.358    -178.558
  C      -35.198     507.487    -179.371
  O      -34.220     506.745    -178.656
  C      -36.451     506.643    -179.583
  O      -36.265     505.793    -180.747
  C      -36.792     505.728    -178.393
  O      -38.217     505.694    -178.226
  C      -36.305     504.362    -178.843
  O      -36.991     503.290    -178.193
  C      -36.546     504.439    -180.348
  N      -36.559     500.609    -183.626
  C      -37.600     501.404    -183.175
  N      -38.831     501.126    -183.665
  N      -37.441     502.379    -182.320
  C      -36.150     502.556    -181.941
  C      -35.036     501.835    -182.313
  C      -35.232     500.739    -183.236
  O      -34.357     499.986    -183.656
  N      -33.908     502.306    -181.682
  C      -34.339     503.305    -180.941
  N      -35.694     503.503    -181.067
  O      -32.984     508.940    -178.489
  O      -31.930     506.879    -177.394
  H      -36.663     502.452    -178.593
  H      -32.448     509.324    -177.774
  H      -36.742     499.857    -184.278
  H      -33.723     503.914    -180.284
  H      -37.581     504.209    -180.616
  H      -35.233     504.264    -178.620
  H      -39.016     500.431    -184.360
  H      -36.326     506.045    -177.459
  H      -39.596     501.726    -183.377
  H      -37.293     507.316    -179.808
  H      -34.776     507.766    -180.345
  H      -35.446     508.391    -178.810
  P      -38.798     506.233    -176.823
  C      -40.430     507.942    -177.883
  O      -40.287     506.783    -177.071
  O      -37.935     507.552    -176.555
  O      -38.657     505.253    -175.700
  H      -37.303     507.404    -175.832
  H      -41.466     508.195    -177.963
  H      -40.034     507.746    -178.858
  H      -39.897     508.757    -177.439

 6  7  8  9  10  11  12  13  14  15  26  29  33  34 0
 6-311+G(2d,p)
 ****
 36  38  39  40  41 0
 6-311+G(2d,p)
 ****
 1  2  3  4  5  16  17  18  19  20  21  22  23  24  25 0
 3-21G
 ****
 27  28  30  31  32  35  37  42  43  44  45  46  47 0
 3-21G
 ****
 48  49 0
 3-21G
 ****


