%nproc=1
%NoSave
%Mem=1900MB
#P OB98/GEN NMR

erre ene a

0 1
  C      -92.507     220.408      55.781
  O      -92.568     219.462      54.736
  H      -91.844     220.024      56.566
  H      -93.498     220.571      56.208
  H      -92.101     221.353      55.404
  P      -93.574     219.778      53.525
  C      -91.974     220.019      51.489
  O      -92.761     220.679      52.469
  C      -91.030     221.033      50.838
  O      -89.956     221.352      51.752
  C      -90.345     220.518      49.583
  O      -91.179     220.576      48.437
  C      -89.172     221.480      49.478
  O      -89.536     222.702      48.816
  C      -88.813     221.735      50.950
  N      -87.611     221.017      51.346
  C      -86.518     221.812      51.703
  O      -86.549     223.040      51.683
  N      -85.372     221.137      52.030
  C      -85.201     219.790      52.004
  O      -84.126     219.254      52.261
  C      -86.376     219.001      51.613
  C      -87.512     219.629      51.300
  O      -94.618     220.797      54.181
  O      -94.246     218.577      52.936
  H      -95.472     220.343      54.333
  H      -88.743     223.283      48.869
  H      -84.568     221.701      52.289
  H      -86.275     217.918      51.576
  H      -88.388     219.085      51.001
  H      -88.649     222.802      51.129
  H      -88.355     221.047      48.909
  H      -89.959     219.508      49.745
  H      -91.592     221.954      50.628
  H      -92.619     219.599      50.714
  H      -91.414     219.210      51.962
  P      -91.497     219.188      47.676
  C      -94.125     219.087      47.688
  O      -92.897     218.677      48.268
  O      -90.403     218.233      48.344
  O      -91.424     219.305      46.191
  H      -90.152     218.530      49.245
  H      -94.938     218.642      48.222
  H      -94.158     218.776      46.665
  H      -94.206     220.153      47.740

 6  7  8  9  10  11  12  13  14  15  16  27  31  32  33  34  35 0
 6-311+G(2d,p)
 ****
 36  37 0
 6-311+G(2d,p)
 ****
 1  2  3  4  5  17  18  19  20  21  22  23  24  25 0
 3-21G
 ****
 26  28  29  30  38  39  40  41  42  43  44  45 0
 3-21G
 ****


