%nproc=1
%NoSave
%Mem=1900MB
#P OB98/GEN NMR

erre ene a

0 1
  C      458.740    -141.763     994.904
  O      457.501    -141.063     994.939
  P      456.143    -141.915     995.107
  C      455.218    -140.102     996.694
  O      455.466    -141.494     996.503
  C      453.916    -139.899     997.482
  O      452.760    -140.231     996.690
  C      453.817    -140.759     998.722
  O      454.656    -140.268     999.756
  C      452.318    -140.698     999.014
  O      451.987    -139.483     999.722
  C      451.720    -140.649     997.590
  N      451.130    -141.918     997.182
  C      449.816    -142.147     997.604
  O      449.233    -141.326     998.311
  N      449.196    -143.319     997.216
  C      449.839    -144.174     996.488
  N      449.183    -145.314     996.137
  C      451.233    -143.976     996.036
  C      451.806    -142.836     996.422
  O      456.264    -143.378     994.868
  O      455.167    -141.225     994.034
  H      452.386    -139.575    1000.608
  H      454.538    -141.899     993.712
  H      451.727    -144.708     995.424
  H      452.830    -142.610     996.135
  H      450.928    -139.881     997.536
  H      451.993    -141.532     999.633
  H      454.093    -141.795     998.481
  H      453.858    -138.837     997.758
  H      448.232    -145.429     996.471
  H      455.158    -139.610     995.729
  H      449.576    -146.016     995.525
  H      456.070    -139.672     997.225
  P      455.597    -141.324    1000.517
  C      457.773    -140.166     999.711
  O      457.003    -141.363     999.759
  O      454.929    -142.731    1000.136
  O      455.669    -141.145    1001.994
  H      455.033    -143.354    1000.879
  H      458.811    -140.436     999.446
  H      457.776    -139.651    1000.674
  H      457.376    -139.499     998.941
  H      459.542    -141.064     994.789
  H      458.741    -142.445     994.080
  H      458.869    -142.306     995.817

 3  4  5  6  7  8  9  10  11  12  13  23  27  28  29  30  32 0
 6-311+G(2d,p)
 ****
 34  35 0
 6-311+G(2d,p)
 ****
 1  2  14  15  16  17  18  19  20  21  22  24  25  26 0
 3-21G
 ****
 31  33  36  37  38  39  40  41  42  43  44  45  46 0
 3-21G
 ****


