%nproc=1
%NoSave
%Mem=1900MB
#P OB98/GEN NMR

erre ene a

0 1
  C     -334.389     360.481     -32.475
  O     -333.380     359.743     -33.130
  H     -334.088     360.625     -31.431
  H     -335.338     359.934     -32.489
  H     -334.513     361.460     -32.940
  P     -333.643     359.222     -34.628
  C     -333.044     356.887     -33.746
  O     -332.779     357.861     -34.747
  C     -331.749     356.309     -33.170
  O     -331.147     355.400     -34.130
  C     -330.699     357.373     -32.817
  O     -330.163     357.105     -31.519
  C     -329.624     357.183     -33.882
  O     -328.351     357.659     -33.448
  C     -329.732     355.677     -34.145
  N     -329.112     355.275     -35.403
  C     -327.720     355.165     -35.407
  O     -327.068     355.439     -34.392
  N     -327.085     354.787     -36.567
  C     -327.775     354.586     -37.642
  N     -327.093     354.224     -38.760
  C     -329.250     354.738     -37.698
  C     -329.845     355.075     -36.551
  O     -333.378     360.229     -35.697
  O     -335.151     358.687     -34.606
  H     -327.696     357.477     -34.152
  H     -335.500     358.644     -35.535
  H     -329.782     354.578     -38.618
  H     -330.927     355.201     -36.497
  H     -329.262     355.105     -33.328
  H     -329.906     357.742     -34.789
  H     -331.089     358.389     -32.821
  H     -332.001     355.696     -32.292
  H     -326.086     354.131     -38.680
  H     -333.654     356.086     -34.189
  H     -327.532     354.052     -39.656
  H     -333.609     357.366     -32.938
  P     -330.817     357.925     -30.298
  C     -328.887     359.194     -29.110
  O     -329.720     358.036     -29.130
  O     -331.898     356.904     -29.713
  O     -331.434     359.216     -30.716
  H     -332.794     357.141     -30.030
  H     -328.210     359.132     -28.284
  H     -329.495     360.069     -29.008
  H     -328.332     359.250     -30.023

 6  7  8  9  10  11  12  13  14  15  16  26  30  31  32  33  35 0
 6-311+G(2d,p)
 ****
 37  38 0
 6-311+G(2d,p)
 ****
 1  2  3  4  5  17  18  19  20  21  22  23  24  25 0
 3-21G
 ****
 27  28  29  34  36  39  40  41  42  43  44  45  46 0
 3-21G
 ****


