%nproc=1
%NoSave
%Mem=1900MB
#P OB98/GEN NMR

erre ene a

0 1
  C     -175.906      29.684     -99.884
  O     -177.045      30.039     -99.123
  H     -175.869      30.319    -100.774
  H     -175.956      28.639    -100.201
  H     -174.995      29.853     -99.299
  P     -177.462      29.082     -97.903
  C     -179.847      30.040     -97.620
  O     -178.543      29.920     -97.052
  C     -180.790      30.788     -96.675
  O     -180.921      30.072     -95.433
  C     -180.293      32.176     -96.289
  O     -180.306      33.114     -97.343
  C     -181.079      32.463     -95.015
  O     -182.367      33.024     -95.257
  C     -181.230      31.045     -94.408
  N     -180.410      30.867     -93.218
  C     -180.907      31.421     -92.045
  O     -181.965      32.054     -91.992
  N     -180.126      31.268     -90.938
  C     -178.900      30.671     -90.893
  O     -178.225      30.603     -89.871
  C     -178.409      30.126     -92.171
  C     -179.174      30.242     -93.258
  O     -176.333      28.543     -97.078
  O     -178.351      27.945     -98.595
  H     -182.931      32.303     -95.599
  H     -178.445      27.158     -98.004
  H     -180.477      31.655     -90.072
  H     -177.434      29.643     -92.179
  H     -178.839      29.849     -94.214
  H     -182.275      30.870     -94.121
  H     -180.546      33.158     -94.361
  H     -179.241      32.088     -95.985
  H     -181.780      30.840     -97.144
  H     -180.234      29.026     -97.786
  H     -179.782      30.554     -98.585
  P     -178.990      33.815     -97.912
  C     -179.939      36.118     -97.154
  O     -179.334      35.364     -98.198
  O     -178.203      33.053     -98.931
  O     -178.086      33.915     -96.580
  H     -177.152      33.801     -96.850
  H     -180.106      37.120     -97.489
  H     -179.292      36.130     -96.302
  H     -180.873      35.671     -96.886

 6  7  8  9  10  11  12  13  14  15  16  26  31  32  33  34  35 0
 6-311+G(2d,p)
 ****
 36  37 0
 6-311+G(2d,p)
 ****
 1  2  3  4  5  17  18  19  20  21  22  23  24  25 0
 3-21G
 ****
 27  28  29  30  38  39  40  41  42  43  44  45 0
 3-21G
 ****


