%nproc=1
%NoSave
%Mem=1900MB
#P OB98/GEN NMR

erre ene a

0 1
  C     -247.661     597.154     734.531
  O     -247.340     596.349     733.406
  P     -245.797     595.970     733.168
  C     -246.089     595.383     730.650
  O     -245.514     596.269     731.618
  C     -246.773     596.171     729.542
  O     -247.994     596.755     730.020
  C     -245.950     597.332     728.988
  O     -244.995     596.903     728.034
  C     -247.031     598.166     728.322
  O     -247.376     597.588     727.046
  C     -248.210     598.004     729.301
  N     -251.439     601.239     731.595
  C     -251.631     600.303     730.642
  N     -250.712     599.493     730.070
  C     -249.483     599.741     730.560
  C     -249.127     600.682     731.513
  C     -250.175     601.450     732.057
  N     -249.980     602.387     733.052
  N     -247.779     600.646     731.761
  C     -247.322     599.685     730.982
  N     -248.313     599.100     730.248
  O     -245.798     594.373     733.251
  O     -244.843     596.584     734.141
  H     -247.414     596.615     727.179
  H     -244.902     594.043     733.487
  H     -252.642     600.196     730.282
  H     -246.280     599.371     730.921
  H     -249.174     597.919     728.782
  H     -246.730     599.197     728.137
  H     -245.488     597.911     729.804
  H     -247.026     595.462     728.733
  H     -246.834     594.750     731.145
  H     -250.802     602.754     733.508
  H     -249.089     602.396     733.529
  H     -245.305     594.739     730.243
  P     -243.443     596.952     728.487
  C     -242.693     597.186     726.009
  O     -242.687     597.740     727.319
  O     -242.967     595.427     728.313
  O     -243.236     597.458     729.879
  H     -242.222     595.236     728.912
  H     -242.414     597.976     725.298
  H     -243.688     596.815     725.746
  H     -241.973     596.382     725.943
  H     -248.717     597.323     734.559
  H     -247.152     598.092     734.455
  H     -247.356     596.654     735.426

 3  4  5  6  7  8  9  10  11  12  22  25  29  30  31  32 0
 6-311+G(2d,p)
 ****
 33  36  37 0
 6-311+G(2d,p)
 ****
 1  2  13  14  15  16  17  18  19  20  21  23  24  26 0
 3-21G
 ****
 27  28  34  35  38  39  40  41  42  43  44  45  46  47  48 0
 3-21G
 ****


