%nproc=1
%NoSave
%Mem=1900MB
#P OB98/GEN NMR

erre ene a

0 1
  C      908.162     200.202      30.493
  O      908.712     201.072      29.521
  H      907.176     199.853      30.182
  H      908.830     199.335      30.603
  H      908.089     200.715      31.459
  P      907.892     202.417      29.210
  C      907.824     202.176      26.623
  O      907.093     202.140      27.841
  C      906.888     201.853      25.454
  O      906.473     200.467      25.526
  C      905.601     202.676      25.445
  O      905.792     203.956      24.878
  C      904.725     201.803      24.550
  O      905.118     201.984      23.164
  C      905.103     200.386      25.016
  N      900.321     198.967      26.152
  C      900.871     199.451      25.015
  N      902.163     199.811      24.795
  C      902.907     199.608      25.910
  C      902.481     199.135      27.125
  C      901.115     198.789      27.230
  N      900.553     198.296      28.392
  N      903.524     199.112      28.043
  C      904.570     199.549      27.351
  N      904.246     199.877      26.065
  O      909.033     203.456      28.765
  O      907.057     202.943      30.332
  H      904.556     201.376      22.641
  H      908.701     204.369      28.858
  H      900.195     199.573      24.179
  H      905.568     199.629      27.739
  H      905.110     199.649      24.209
  H      903.669     202.041      24.624
  H      905.143     202.724      26.435
  H      907.453     201.989      24.516
  H      908.624     201.432      26.661
  H      899.542     198.261      28.425
  H      901.106     198.313      29.247
  H      908.258     203.183      26.494
  P      904.588     205.014      25.026
  C      904.338     204.976      22.438
  O      903.693     204.846      23.693
  O      905.304     206.419      24.822
  O      903.854     204.935      26.322
  H      904.831     207.137      25.273
  H      903.623     204.841      21.654
  H      905.105     204.235      22.353
  H      904.773     205.950      22.360

 6  7  8  9  10  11  12  13  14  15  25  28  32  33  34  35 0
 6-311+G(2d,p)
 ****
 36  39  40 0
 6-311+G(2d,p)
 ****
 1  2  3  4  5  16  17  18  19  20  21  22  23  24 0
 3-21G
 ****
 26  27  29  30  31  37  38  41  42  43  44  45  46  47 0
 3-21G
 ****
 48 0
 3-21G
 ****


