%nproc=1
%NoSave
%Mem=1900MB
#P OB98/GEN NMR

erre ene a

0 1
  C       93.780    -259.135     240.826
  O       92.515    -258.611     241.183
  H       94.290    -259.469     241.732
  H       94.379    -258.354     240.350
  H       93.671    -259.987     240.149
  P       91.468    -258.371     239.991
  C       90.958    -260.899     239.718
  O       91.459    -259.716     239.115
  C       90.694    -261.963     238.656
  O       90.227    -263.184     239.271
  C       89.641    -261.573     237.623
  O       90.198    -260.778     236.584
  C       89.235    -262.942     237.104
  O       90.243    -263.434     236.192
  C       89.237    -263.783     238.388
  N       84.631    -265.907     238.492
  C       85.659    -266.063     237.580
  N       85.422    -266.896     236.545
  N       86.813    -265.453     237.671
  C       86.900    -264.631     238.744
  C       85.950    -264.389     239.712
  C       84.688    -265.082     239.608
  O       83.748    -264.988     240.396
  N       86.399    -263.493     240.645
  C       87.609    -263.176     240.230
  N       87.960    -263.837     239.080
  O       92.233    -257.315     239.057
  O       90.133    -257.856     240.411
  H       91.077    -263.491     236.695
  H       91.857    -256.428     239.213
  H       83.760    -266.392     238.371
  H       88.273    -262.483     240.730
  H       89.543    -264.819     238.206
  H       88.294    -262.921     236.553
  H       84.550    -267.380     236.403
  H       88.777    -261.085     238.089
  H       86.163    -267.028     235.868
  H       91.649    -262.192     238.166
  H       90.024    -260.667     240.241
  H       91.693    -261.269     240.441
  P       89.196    -260.031     235.581
  C       89.105    -257.778     236.863
  O       88.397    -258.937     236.444
  O       88.092    -261.154     235.288
  O       89.811    -259.531     234.320
  H       88.158    -261.451     234.359
  H       88.451    -257.144     237.424
  H       89.464    -257.250     236.005
  H       89.933    -258.068     237.476

 6  7  8  9  10  11  12  13  14  15  26  29  33  34 0
 6-311+G(2d,p)
 ****
 36  38  39  40  41 0
 6-311+G(2d,p)
 ****
 1  2  3  4  5  16  17  18  19  20  21  22  23  24  25 0
 3-21G
 ****
 27  28  30  31  32  35  37  42  43  44  45  46  47 0
 3-21G
 ****
 48  49 0
 3-21G
 ****


