%nproc=1
%NoSave
%Mem=1900MB
#P OB98/GEN NMR

erre ene a

0 1
  C      352.633    -455.667    -445.018
  O      352.758    -457.064    -445.294
  P      351.434    -457.950    -445.427
  C      352.024    -458.853    -447.767
  O      351.091    -458.108    -446.988
  C      351.386    -460.138    -448.302
  O      350.157    -459.868    -449.007
  C      352.270    -460.881    -449.288
  O      353.329    -461.532    -448.616
  C      351.261    -461.793    -449.960
  O      351.021    -462.965    -449.176
  C      349.993    -460.911    -450.000
  N      349.714    -460.355    -451.317
  C      349.469    -461.290    -452.334
  O      349.529    -462.494    -452.099
  N      349.174    -460.821    -453.589
  C      349.127    -459.548    -453.818
  N      348.831    -459.148    -455.080
  C      349.396    -458.539    -452.770
  C      349.685    -459.005    -451.559
  O      350.290    -457.537    -444.563
  O      351.946    -459.420    -445.033
  H      351.891    -463.382    -449.020
  H      351.210    -459.916    -444.625
  H      349.348    -457.482    -453.013
  H      349.891    -458.334    -450.746
  H      349.115    -461.484    -449.691
  H      351.604    -462.137    -450.948
  H      352.681    -460.173    -450.028
  H      351.160    -460.786    -447.444
  H      348.665    -459.871    -455.771
  H      352.897    -459.094    -447.152
  H      348.726    -458.175    -455.353
  H      352.380    -458.218    -448.593
  P      354.829    -461.020    -448.900
  C      355.096    -459.441    -446.855
  O      354.962    -459.552    -448.261
  O      354.810    -460.727    -450.477
  O      355.914    -461.981    -448.543
  H      355.687    -460.927    -450.857
  H      355.498    -458.450    -446.619
  H      355.788    -460.196    -446.466
  H      354.123    -459.555    -446.377
  H      353.606    -455.226    -444.961
  H      352.125    -455.532    -444.086
  H      352.074    -455.198    -445.800

 3  4  5  6  7  8  9  10  11  12  13  23  27  28  29  30  32 0
 6-311+G(2d,p)
 ****
 34  35 0
 6-311+G(2d,p)
 ****
 1  2  14  15  16  17  18  19  20  21  22  24  25  26 0
 3-21G
 ****
 31  33  36  37  38  39  40  41  42  43  44  45  46 0
 3-21G
 ****


