%nproc=1
%NoSave
%Mem=1900MB
#P OB98/GEN NMR

erre ene a

0 1
  C      234.750    -405.461    1155.167
  O      233.351    -405.227    1155.323
  P      232.797    -404.889    1156.801
  C      231.588    -402.816    1155.862
  O      232.476    -403.311    1156.855
  C      230.896    -401.523    1156.360
  O      230.073    -401.780    1157.511
  C      231.861    -400.451    1156.796
  O      232.480    -399.828    1155.667
  C      230.967    -399.551    1157.632
  O      230.213    -398.653    1156.782
  C      230.008    -400.568    1158.285
  N      230.319    -400.820    1159.690
  C      229.988    -399.779    1160.573
  O      229.507    -398.736    1160.157
  N      230.224    -399.972    1161.926
  C      230.748    -401.083    1162.335
  N      230.968    -401.206    1163.669
  C      231.130    -402.187    1161.429
  C      230.878    -401.977    1160.133
  O      233.601    -405.424    1157.937
  O      231.320    -405.530    1156.770
  H      229.407    -398.420    1157.279
  H      231.089    -405.805    1157.685
  H      231.550    -403.101    1161.813
  H      231.129    -402.745    1159.397
  H      228.971    -400.209    1158.225
  H      231.537    -398.931    1158.324
  H      232.643    -400.883    1157.442
  H      230.259    -401.156    1155.554
  H      230.706    -400.435    1164.260
  H      230.847    -403.562    1155.622
  H      231.319    -402.063    1164.100
  H      232.160    -402.616    1154.954
  P      234.088    -399.885    1155.572
  C      233.747    -400.279    1153.029
  O      234.467    -400.618    1154.212
  O      234.474    -400.958    1156.713
  O      234.762    -398.574    1155.811
  H      235.329    -400.708    1157.108
  H      234.339    -400.623    1152.161
  H      233.603    -399.200    1152.950
  H      232.780    -400.783    1153.030
  H      234.964    -405.671    1154.140
  H      235.041    -406.296    1155.770
  H      235.293    -404.592    1155.475

 3  4  5  6  7  8  9  10  11  12  13  23  27  28  29  30  32 0
 6-311+G(2d,p)
 ****
 34  35 0
 6-311+G(2d,p)
 ****
 1  2  14  15  16  17  18  19  20  21  22  24  25  26 0
 3-21G
 ****
 31  33  36  37  38  39  40  41  42  43  44  45  46 0
 3-21G
 ****


