%nproc=1
%NoSave
%Mem=1900MB
#P OB98/GEN NMR

erre ene a

0 1
  C      390.337     369.392     548.130
  O      391.155     368.771     547.144
  P      392.690     368.460     547.496
  C      393.120     367.124     549.661
  O      392.747     367.064     548.283
  C      393.510     365.736     550.175
  O      392.383     364.839     550.197
  C      394.558     365.047     549.312
  O      395.836     365.620     549.518
  C      394.410     363.603     549.768
  O      395.139     363.368     550.980
  C      392.891     363.497     550.032
  N      392.177     362.776     548.989
  C      391.275     361.800     549.419
  O      391.149     361.561     550.621
  N      390.551     361.113     548.478
  C      390.718     361.370     547.218
  N      389.976     360.660     546.329
  C      391.669     362.385     546.719
  C      392.363     363.034     547.648
  O      393.447     369.578     548.122
  O      393.311     368.073     546.062
  H      394.786     362.541     551.357
  H      394.255     368.322     546.056
  H      391.771     362.569     545.657
  H      393.088     363.795     547.368
  H      392.708     362.978     550.982
  H      394.796     362.902     549.021
  H      394.277     365.132     548.257
  H      393.887     365.852     551.203
  H      389.337     359.964     546.698
  H      392.284     367.517     550.246
  H      389.997     360.823     545.335
  H      393.948     367.835     549.770
  P      396.436     366.541     548.352
  C      396.704     369.092     547.953
  O      396.064     368.061     548.692
  O      395.487     366.197     547.099
  O      397.873     366.286     548.021
  H      396.004     366.241     546.277
  H      396.124     370.013     548.074
  H      396.754     368.849     546.889
  H      397.706     369.257     548.346
  H      389.350     369.529     547.740
  H      390.752     370.343     548.391
  H      390.294     368.771     549.000

 3  4  5  6  7  8  9  10  11  12  13  23  27  28  29  30  32 0
 6-311+G(2d,p)
 ****
 34  35 0
 6-311+G(2d,p)
 ****
 1  2  14  15  16  17  18  19  20  21  22  24  25  26 0
 3-21G
 ****
 31  33  36  37  38  39  40  41  42  43  44  45  46 0
 3-21G
 ****


