%nproc=1
%NoSave
%Mem=1900MB
#P OB98/GEN NMR

erre ene a

0 1
  C      685.444     827.142     441.888
  O      684.062     827.428     441.856
  H      685.951     827.928     442.454
  H      685.840     827.136     440.866
  H      685.643     826.180     442.364
  P      683.038     826.249     441.494
  C      682.553     825.655     443.958
  O      683.053     825.197     442.715
  C      681.308     824.877     444.402
  O      681.663     823.499     444.639
  C      680.701     825.420     445.695
  O      679.777     826.475     445.517
  C      680.009     824.180     446.257
  O      678.663     824.047     445.756
  C      680.882     823.023     445.747
  N      681.281     820.228     450.017
  C      680.141     820.677     449.387
  N      678.969     820.382     449.985
  N      680.161     821.373     448.274
  C      681.407     821.677     447.838
  C      682.619     821.293     448.396
  C      682.578     820.469     449.575
  O      683.562     820.025     450.169
  N      683.673     821.834     447.709
  C      683.113     822.595     446.796
  N      681.746     822.481     446.787
  O      683.794     825.440     440.333
  O      681.681     826.686     441.042
  H      678.147     824.807     446.085
  H      683.136     825.048     439.729
  H      681.210     819.671     450.844
  H      683.641     823.222     446.081
  H      680.272     822.189     445.369
  H      679.928     824.231     447.346
  H      678.900     819.925     450.880
  H      681.488     825.718     446.393
  H      678.124     820.866     449.660
  H      680.579     824.885     443.580
  H      682.304     826.714     443.832
  H      683.331     825.596     444.732
  P      679.432     827.483     446.703
  C      679.858     829.735     445.409
  O      680.222     828.846     446.448
  O      680.209     826.847     447.949
  O      677.979     827.690     446.987
  H      679.590     826.330     448.505
  H      680.514     830.580     445.416
  H      678.851     830.064     445.558
  H      679.933     829.233     444.467

 6  7  8  9  10  11  12  13  14  15  26  29  33  34 0
 6-311+G(2d,p)
 ****
 36  38  39  40  41 0
 6-311+G(2d,p)
 ****
 1  2  3  4  5  16  17  18  19  20  21  22  23  24  25 0
 3-21G
 ****
 27  28  30  31  32  35  37  42  43  44  45  46  47 0
 3-21G
 ****
 48  49 0
 3-21G
 ****


