%nproc=1
%NoSave
%Mem=1900MB
#P OB98/GEN NMR

erre ene a

0 1
  C      899.714    -703.724     220.054
  O      898.778    -703.022     219.247
  H      899.414    -703.588     221.112
  H      900.713    -703.302     219.928
  H      899.718    -704.791     219.833
  P      898.899    -703.196     217.660
  C      898.465    -700.648     217.507
  O      899.261    -701.733     217.076
  C      898.912    -699.368     216.816
  O      900.143    -698.879     217.433
  C      899.227    -699.534     215.343
  O      898.052    -699.615     214.575
  C      900.082    -698.292     215.073
  O      899.260    -697.156     214.876
  C      900.884    -698.197     216.406
  N      902.257    -698.738     216.275
  C      903.148    -698.003     215.532
  O      902.834    -696.959     214.942
  N      904.418    -698.529     215.432
  C      904.828    -699.715     215.934
  O      905.960    -700.189     215.749
  C      903.836    -700.473     216.694
  C      902.600    -699.951     216.833
  O      897.762    -703.870     216.972
  O      900.272    -704.002     217.451
  H      898.781    -697.006     215.712
  H      900.071    -704.920     217.213
  H      905.092    -698.004     214.892
  H      904.124    -701.442     217.092
  H      901.846    -700.504     217.382
  H      900.970    -697.132     216.699
  H      900.710    -698.410     214.180
  H      899.862    -700.433     215.208
  H      898.149    -698.583     216.970
  H      898.599    -700.532     218.597
  H      897.418    -700.854     217.283
  P      898.034    -700.459     213.208
  C      896.243    -698.858     212.292
  O      897.467    -699.496     212.029
  O      897.388    -701.804     213.287
  O      899.604    -700.605     212.840
  H      899.829    -701.553     212.821
  H      895.968    -698.254     211.453
  H      896.342    -698.240     213.159
  H      895.486    -699.595     212.464

 6  7  8  9  10  11  12  13  14  15  16  26  31  32  33  34  35 0
 6-311+G(2d,p)
 ****
 36  37 0
 6-311+G(2d,p)
 ****
 1  2  3  4  5  17  18  19  20  21  22  23  24  25 0
 3-21G
 ****
 27  28  29  30  38  39  40  41  42  43  44  45 0
 3-21G
 ****


