%nproc=1
%NoSave
%Mem=1900MB
#P OB98/GEN NMR

erre ene a

0 1
  C      463.088     379.048    -201.376
  O      464.426     379.136    -201.809
  P      465.621     378.826    -200.785
  C      465.718     376.264    -200.478
  O      466.247     377.397    -201.186
  C      465.808     375.016    -201.350
  O      464.882     375.103    -202.454
  C      467.174     374.788    -201.977
  O      468.090     374.268    -201.030
  C      466.821     373.823    -203.108
  O      466.722     372.480    -202.615
  C      465.445     374.339    -203.549
  N      466.266     374.280    -208.587
  C      466.435     373.337    -207.626
  N      466.222     373.436    -206.297
  C      465.830     374.681    -205.979
  C      465.656     375.771    -206.835
  C      465.867     375.527    -208.210
  N      465.647     376.462    -209.195
  N      465.281     376.886    -206.125
  C      465.232     376.498    -204.864
  N      465.502     375.159    -204.745
  O      465.282     378.982    -199.334
  O      466.771     379.847    -201.215
  H      467.598     372.226    -202.266
  H      466.980     380.436    -200.466
  H      466.761     372.369    -207.989
  H      465.007     377.137    -204.016
  H      464.750     373.526    -203.751
  H      467.571     373.824    -203.907
  H      467.551     375.719    -202.410
  H      465.515     374.150    -200.740
  H      464.675     376.468    -200.216
  H      465.687     376.147    -210.148
  H      465.066     377.275    -208.968
  H      466.295     376.122    -199.552
  P      469.655     374.538    -201.211
  C      469.986     376.792    -200.037
  O      470.122     375.392    -199.935
  O      470.074     375.086    -202.529
  O      470.318     373.103    -200.931
  H      471.134     373.019    -201.468
  H      470.798     377.214    -200.637
  H      470.044     377.239    -199.028
  H      469.019     377.061    -200.478
  H      462.434     379.287    -202.188
  H      462.927     379.737    -200.574
  H      462.887     378.053    -201.037

 3  4  5  6  7  8  9  10  11  12  22  25  29  30  31  32 0
 6-311+G(2d,p)
 ****
 33  36  37 0
 6-311+G(2d,p)
 ****
 1  2  13  14  15  16  17  18  19  20  21  23  24  26 0
 3-21G
 ****
 27  28  34  35  38  39  40  41  42  43  44  45  46  47  48 0
 3-21G
 ****


