%nproc=1
%NoSave
%Mem=1900MB
#P OB98/GEN NMR

erre ene a

0 1
  C     -186.163     407.410     268.271
  O     -185.150     408.390     268.040
  P     -185.351     409.878     268.586
  C     -185.441     409.797     271.167
  O     -184.639     410.022     270.014
  C     -185.024     410.749     272.293
  O     -186.032     410.825     273.325
  C     -183.761     410.290     273.018
  O     -182.550     410.355     272.294
  C     -183.839     411.066     274.320
  O     -183.331     412.395     274.171
  C     -185.363     411.095     274.582
  N     -185.779     410.145     275.615
  C     -185.359     410.435     276.910
  O     -184.648     411.394     277.191
  N     -185.761     409.550     277.873
  C     -186.491     408.413     277.672
  O     -186.803     407.646     278.572
  C     -186.882     408.150     276.279
  C     -186.514     409.013     275.327
  O     -186.740     410.414     268.510
  O     -184.377     410.738     267.636
  H     -183.934     412.869     273.573
  H     -184.840     411.568     267.406
  H     -185.474     409.745     278.824
  H     -187.455     407.257     276.080
  H     -186.794     408.836     274.293
  H     -185.678     412.094     274.898
  H     -183.253     410.588     275.111
  H     -183.893     409.229     273.274
  H     -184.900     411.750     271.874
  H     -185.339     408.757     271.492
  H     -186.496     409.937     270.903
  P     -181.406     409.237     272.387
  C     -181.962     407.660     270.408
  O     -181.127     408.677     270.911
  O     -181.514     408.239     273.491
  O     -180.101     410.146     272.647
  H     -179.484     409.641     273.209
  H     -181.620     407.390     269.406
  H     -182.996     408.017     270.338
  H     -181.917     406.773     271.047
  H     -185.863     406.478     267.839
  H     -187.080     407.732     267.823
  H     -186.305     407.286     269.324

 3  4  5  6  7  8  9  10  11  12  13  23  28  29  30  31  32 0
 6-311+G(2d,p)
 ****
 33  34 0
 6-311+G(2d,p)
 ****
 1  2  14  15  16  17  18  19  20  21  22  24  25  26  27 0
 3-21G
 ****
 35  36  37  38  39  40  41  42  43  44  45 0
 3-21G
 ****


