%nproc=1
%NoSave
%Mem=1900MB
#P OB98/GEN NMR

erre ene a

0 1
  C      -98.049     -10.052     174.200
  O      -98.457     -11.261     173.586
  P      -99.965     -11.456     173.081
  C     -101.050     -11.701     175.389
  O     -100.730     -12.360     174.173
  C     -101.003     -12.675     176.572
  O     -101.335     -11.946     177.795
  C     -101.974     -13.858     176.468
  O     -101.331     -14.979     177.096
  C     -103.154     -13.409     177.323
  O     -103.965     -14.493     177.757
  C     -102.417     -12.665     178.434
  N     -104.886     -11.755     182.817
  C     -104.160     -12.809     182.404
  N     -103.557     -12.989     181.210
  C     -103.759     -11.923     180.407
  C     -104.502     -10.787     180.679
  C     -105.078     -10.711     181.968
  N     -105.793      -9.627     182.416
  N     -104.521      -9.950     179.580
  C     -103.808     -10.572     178.662
  N     -103.276     -11.739     179.142
  O     -100.109     -11.930     171.669
  O     -100.625     -10.009     173.274
  H     -104.574     -14.161     178.445
  H     -100.742      -9.576     172.401
  H     -104.042     -13.614     183.125
  H     -103.644     -10.229     177.653
  H     -101.977     -13.357     179.167
  H     -103.785     -12.729     176.733
  H     -102.265     -14.106     175.437
  H      -99.966     -13.031     176.683
  H     -102.060     -11.286     175.299
  H     -106.042      -9.618     183.396
  H     -105.726      -8.744     181.915
  H     -100.350     -10.869     175.560
  P     -101.264     -16.392     176.338
  C     -102.452     -17.469     178.342
  O     -101.333     -17.526     177.470
  O     -100.154     -16.541     175.351
  O     -102.708     -16.508     175.635
  H     -102.673     -17.189     174.924
  H     -102.276     -16.707     179.120
  H     -102.580     -18.440     178.825
  H     -103.367     -17.217     177.792
  H      -97.014     -10.118     174.464
  H      -98.632      -9.885     175.081
  H      -98.192      -9.240     173.518

 3  4  5  6  7  8  9  10  11  12  22  25  29  30  31  32 0
 6-311+G(2d,p)
 ****
 33  36  37 0
 6-311+G(2d,p)
 ****
 1  2  13  14  15  16  17  18  19  20  21  23  24  26 0
 3-21G
 ****
 27  28  34  35  38  39  40  41  42  43  44  45  46  47  48 0
 3-21G
 ****


