%nproc=1
%NoSave
%Mem=1900MB
#P OB98/GEN NMR

erre ene a

0 1
  C      460.843     619.256     204.245
  O      459.992     619.055     203.122
  P      458.769     618.021     203.282
  C      459.150     617.040     200.861
  O      459.086     616.819     202.252
  C      459.265     615.717     200.104
  O      460.519     615.073     200.439
  C      458.180     614.697     200.459
  O      456.945     615.008     199.827
  C      458.820     613.390     199.995
  O      458.699     613.247     198.566
  C      460.310     613.640     200.369
  N      460.720     612.967     201.601
  C      460.544     611.593     201.646
  O      460.081     610.938     200.702
  N      460.915     610.998     202.811
  C      461.368     611.612     203.940
  O      461.639     611.021     204.985
  C      461.503     613.071     203.846
  C      461.177     613.673     202.696
  O      457.591     618.847     202.590
  O      458.519     617.617     204.699
  H      457.932     619.471     201.925
  H      457.750     613.368     198.350
  H      460.823     609.983     202.859
  H      461.847     613.604     204.726
  H      461.254     614.751     202.602
  H      460.961     613.283     199.547
  H      458.388     612.513     200.461
  H      458.029     614.667     201.549
  H      459.263     615.934     199.033
  H      460.031     617.662     200.639
  H      458.263     617.590     200.542
  P      455.777     613.905     199.942
  C      455.002     614.460     197.502
  O      455.420     613.479     198.436
  O      454.533     614.807     200.418
  O      456.120     612.769     200.869
  H      454.497     615.649     199.933
  H      455.139     614.068     196.484
  H      455.579     615.382     197.611
  H      453.941     614.669     197.646
  H      461.605     619.964     203.993
  H      461.297     618.327     204.520
  H      460.267     619.629     205.067

 3  4  5  6  7  8  9  10  11  12  13  24  28  29  30  31  32 0
 6-311+G(2d,p)
 ****
 33  34 0
 6-311+G(2d,p)
 ****
 1  2  14  15  16  17  18  19  20  21  22  23  25  26  27 0
 3-21G
 ****
 35  36  37  38  39  40  41  42  43  44  45 0
 3-21G
 ****


