%nproc=1
%NoSave
%Mem=1900MB
#P OB98/GEN NMR

erre ene a

0 1
  C      432.270     310.832     193.471
  O      432.873     311.046     192.209
  P      432.295     312.138     191.182
  C      434.352     313.652     191.598
  O      433.581     312.923     190.640
  C      435.810     313.704     191.138
  O      436.437     312.419     191.357
  C      436.006     314.008     189.656
  O      435.799     315.389     189.386
  C      437.418     313.503     189.439
  O      438.379     314.469     189.906
  C      437.458     312.258     190.349
  N      437.266     311.009     189.606
  C      438.365     310.542     188.882
  O      439.430     311.161     188.874
  N      438.237     309.369     188.186
  C      437.110     308.725     188.204
  N      437.066     307.521     187.554
  C      435.916     309.199     188.914
  C      436.058     310.342     189.594
  O      431.223     313.015     191.742
  O      431.834     311.297     189.908
  H      438.103     314.741     190.807
  H      430.905     310.963     189.964
  H      434.997     308.634     188.880
  H      435.238     310.757     190.155
  H      438.410     312.208     190.886
  H      437.655     313.294     188.389
  H      435.302     313.421     189.052
  H      436.330     314.458     191.753
  H      437.952     307.151     187.235
  H      434.293     313.135     192.557
  H      436.346     306.846     187.750
  H      433.935     314.652     191.706
  P      435.364     315.799     187.898
  C      432.938     315.063     188.416
  O      433.788     316.103     187.965
  O      435.480     314.423     187.089
  O      436.196     316.881     187.290
  H      436.314     314.397     186.575
  H      431.955     315.495     188.621
  H      433.322     314.612     189.342
  H      432.832     314.302     187.643
  H      432.804     310.068     193.997
  H      431.254     310.526     193.334
  H      432.296     311.740     194.037

 3  4  5  6  7  8  9  10  11  12  13  23  27  28  29  30  32 0
 6-311+G(2d,p)
 ****
 34  35 0
 6-311+G(2d,p)
 ****
 1  2  14  15  16  17  18  19  20  21  22  24  25  26 0
 3-21G
 ****
 31  33  36  37  38  39  40  41  42  43  44  45  46 0
 3-21G
 ****


