%nproc=1
%NoSave
%Mem=1900MB
#P OB98/GEN NMR

erre ene a

0 1
  C      220.936      81.756      26.673
  O      221.585      82.937      27.098
  P      223.085      82.870      27.650
  C      223.199      85.435      27.759
  O      223.364      84.216      28.476
  C      223.441      86.628      28.682
  O      222.409      86.706      29.687
  C      224.756      86.561      29.449
  O      225.847      86.894      28.613
  C      224.490      87.553      30.575
  O      224.711      88.900      30.127
  C      222.998      87.318      30.856
  N      222.507      87.309      35.933
  C      222.887      88.271      35.067
  N      223.032      88.184      33.727
  C      222.760      86.940      33.304
  C      222.394      85.845      34.072
  C      222.244      86.070      35.451
  N      221.798      85.112      36.336
  N      222.234      84.728      33.274
  C      222.507      85.141      32.054
  N      222.765      86.481      32.015
  O      224.125      82.525      26.636
  O      223.019      81.753      28.795
  H      224.659      89.478      30.911
  H      223.621      81.020      28.566
  H      223.094      89.243      35.506
  H      222.513      84.515      31.171
  H      222.462      88.260      31.022
  H      225.136      87.389      31.443
  H      224.888      85.560      29.876
  H      223.394      87.543      28.077
  H      222.178      85.470      27.370
  H      221.588      85.419      37.272
  H      221.317      84.298      35.961
  H      223.900      85.458      26.918
  P      227.175      86.002      28.644
  C      227.788      86.356      26.179
  O      228.159      86.591      27.523
  O      226.965      84.525      28.596
  O      227.891      86.443      30.008
  H      228.381      85.684      30.377
  H      228.038      85.328      25.903
  H      228.344      87.042      25.537
  H      226.716      86.524      26.035
  H      219.947      81.993      26.339
  H      220.881      81.066      27.489
  H      221.488      81.315      25.869

 3  4  5  6  7  8  9  10  11  12  22  25  29  30  31  32 0
 6-311+G(2d,p)
 ****
 33  36  37 0
 6-311+G(2d,p)
 ****
 1  2  13  14  15  16  17  18  19  20  21  23  24  26 0
 3-21G
 ****
 27  28  34  35  38  39  40  41  42  43  44  45  46  47  48 0
 3-21G
 ****


