%nproc=1
%NoSave
%Mem=1900MB
#P OB98/GEN NMR

erre ene a

0 1
  C     -328.391    -234.467    -373.067
  O     -329.598    -235.195    -372.976
  P     -330.419    -235.379    -371.615
  C     -330.402    -237.977    -371.646
  O     -330.004    -236.790    -370.963
  C     -330.075    -239.268    -370.860
  O     -328.645    -239.344    -370.632
  C     -330.732    -239.216    -369.468
  O     -332.073    -239.596    -369.311
  C     -329.742    -239.926    -368.552
  O     -330.098    -241.290    -368.301
  C     -328.415    -239.844    -369.309
  N     -325.289    -239.324    -365.363
  C     -325.934    -240.458    -365.808
  N     -325.884    -241.541    -364.992
  N     -326.587    -240.519    -366.939
  C     -326.621    -239.325    -367.603
  C     -326.009    -238.144    -367.259
  C     -325.257    -238.106    -366.027
  O     -324.738    -237.106    -365.549
  N     -326.320    -237.132    -368.130
  C     -327.167    -237.693    -368.977
  N     -327.409    -239.013    -368.675
  O     -331.858    -234.992    -371.634
  O     -329.657    -234.323    -370.645
  H     -330.929    -241.300    -367.789
  H     -330.321    -233.956    -370.037
  H     -324.868    -239.322    -364.433
  H     -327.652    -237.175    -369.803
  H     -327.978    -240.850    -369.436
  H     -329.713    -239.428    -367.569
  H     -325.522    -241.482    -364.051
  H     -330.710    -238.158    -369.159
  H     -326.484    -242.319    -365.208
  H     -330.328    -240.158    -371.442
  H     -329.903    -237.982    -372.618
  H     -331.485    -237.944    -371.839
  P     -332.999    -239.304    -368.037
  C     -333.607    -241.788    -367.738
  O     -333.031    -240.644    -367.129
  O     -334.495    -239.258    -368.628
  O     -332.677    -238.055    -367.294
  H     -335.062    -238.744    -368.014
  H     -333.848    -242.512    -366.947
  H     -332.893    -242.235    -368.428
  H     -334.533    -241.534    -368.270
  H     -328.037    -234.489    -374.076
  H     -327.659    -234.908    -372.423
  H     -328.563    -233.453    -372.771

 3  4  5  6  7  8  9  10  11  12  23  26  30  31 0
 6-311+G(2d,p)
 ****
 33  35  36  37  38 0
 6-311+G(2d,p)
 ****
 1  2  13  14  15  16  17  18  19  20  21  22  24  25 0
 3-21G
 ****
 27  28  29  32  34  39  40  41  42  43  44  45  46  47  48  49 0
 3-21G
 ****


