%nproc=1
%NoSave
%Mem=1900MB
#P OB98/GEN NMR

erre ene a

0 1
  C       72.070      15.556      88.067
  O       72.041      16.640      87.149
  P       73.348      16.884      86.247
  C       74.167      18.520      88.077
  O       74.495      17.419      87.238
  C       75.388      18.975      88.872
  O       75.888      17.853      89.651
  C       76.550      19.493      88.008
  O       77.093      20.680      88.604
  C       77.598      18.397      88.127
  O       78.914      18.892      87.910
  C       77.328      17.910      89.551
  N       81.630      15.541      90.741
  C       81.341      16.892      90.728
  N       82.363      17.730      91.017
  N       80.161      17.381      90.451
  C       79.228      16.426      90.212
  C       79.390      15.059      90.204
  C       80.718      14.536      90.453
  O       81.058      13.354      90.392
  N       78.206      14.417      89.935
  C       77.331      15.391      89.776
  N       77.913      16.632      89.883
  O       72.950      18.179      85.391
  O       73.734      15.750      85.361
  H       79.530      18.159      88.099
  H       73.036      17.984      84.439
  H       82.564      15.220      90.943
  H       76.280      15.251      89.548
  H       77.690      18.644      90.286
  H       77.389      17.616      87.388
  H       83.289      17.419      91.273
  H       76.281      19.692      86.967
  H       82.165      18.724      91.037
  H       75.069      19.742      89.591
  H       73.377      18.220      88.773
  H       73.796      19.342      87.455
  P       77.753      21.737      87.590
  C       80.237      21.210      88.186
  O       79.199      21.147      87.228
  O       78.081      22.996      88.529
  O       76.880      22.096      86.434
  H       78.120      23.815      88.000
  H       79.873      21.530      89.170
  H       80.996      21.917      87.845
  H       80.692      20.221      88.286
  H       71.141      15.512      88.596
  H       72.871      15.699      88.762
  H       72.220      14.641      87.533

 3  4  5  6  7  8  9  10  11  12  23  26  30  31  33  0
 6-311+G(2d,p)
 ****
 35  36  37  38 0
 6-311+G(2d,p)
 ****
 1  2  13  14  15  16  17  18  19  20  21  22  24  25  27  28  29 0
 3-21G
 ****
 32  34  39  40  41  42  43  44  45  46  47  48  49 0
 3-21G
 ****


