%nproc=1
%NoSave
%Mem=1900MB
#P OB98/GEN NMR

erre ene a

0 1
  C      287.051      97.612    -171.431
  O      286.952      98.984    -171.774
  H      287.792      97.501    -170.634
  H      287.386      97.037    -172.300
  H      286.095      97.225    -171.076
  P      285.752      99.458    -172.722
  C      287.173     100.335    -174.693
  O      286.278      99.326    -174.230
  C      287.210     100.365    -176.219
  O      287.748     101.658    -176.646
  C      288.100      99.276    -176.854
  O      287.519      98.925    -178.118
  C      289.398     100.037    -177.054
  O      290.284      99.351    -177.906
  C      288.850     101.381    -177.540
  N      289.834     102.450    -177.521
  C      290.787     102.455    -178.532
  O      290.840     101.626    -179.439
  N      291.725     103.457    -178.461
  C      291.789     104.425    -177.501
  O      292.635     105.313    -177.498
  C      290.767     104.351    -176.446
  C      289.850     103.391    -176.501
  O      285.137     100.776    -172.378
  O      284.684      98.270    -172.613
  H      283.995      98.505    -171.961
  H      290.327      98.397    -177.666
  H      292.428     103.476    -179.190
  H      290.807     105.094    -175.658
  H      289.081     103.298    -175.737
  H      288.431     101.283    -178.546
  H      289.917     100.153    -176.096
  H      288.189      98.380    -176.229
  H      286.183     100.308    -176.602
  H      288.170     100.101    -174.304
  H      286.851     101.307    -174.309
  P      287.329      97.397    -178.601
  C      289.252      97.090    -180.296
  O      288.761      96.782    -178.999
  O      286.295      97.238    -179.676
  O      286.908      96.582    -177.293
  H      286.270      95.885    -177.541
  H      290.205      96.625    -180.436
  H      289.354      98.150    -180.396
  H      288.566      96.727    -181.033

 6  7  8  9  10  11  12  13  14  15  16  27  31  32  33  34  35 0
 6-311+G(2d,p)
 ****
 36  37 0
 6-311+G(2d,p)
 ****
 1  2  3  4  5  17  18  19  20  21  22  23  24  25 0
 3-21G
 ****
 26  28  29  30  38  39  40  41  42  43  44  45 0
 3-21G
 ****


