%nproc=1
%NoSave
%Mem=1900MB
#P OB98/GEN NMR

erre ene a

0 1
  C     -352.219     160.459    -299.028
  O     -352.509     159.749    -300.211
  H     -352.077     159.746    -298.215
  H     -353.055     161.117    -298.775
  H     -351.305     161.047    -299.144
  P     -352.597     160.590    -301.577
  C     -354.585     159.431    -302.787
  O     -353.175     159.590    -302.695
  C     -354.930     158.259    -303.712
  O     -354.180     158.405    -304.946
  C     -354.600     156.890    -303.119
  O     -355.624     155.968    -303.496
  C     -353.296     156.503    -303.796
  O     -353.092     155.092    -303.848
  C     -353.454     157.180    -305.170
  N     -352.156     157.422    -305.798
  C     -351.859     156.656    -306.931
  O     -352.660     155.818    -307.343
  N     -350.633     156.812    -307.523
  C     -349.751     157.604    -306.994
  N     -348.544     157.691    -307.614
  C     -350.006     158.381    -305.760
  C     -351.217     158.247    -305.225
  O     -351.066     160.770    -302.004
  O     -353.321     161.894    -301.479
  H     -352.745     154.799    -302.976
  H     -350.929     161.612    -302.479
  H     -349.231     159.000    -305.341
  H     -351.496     158.774    -304.321
  H     -354.059     156.555    -305.835
  H     -352.456     156.949    -303.253
  H     -354.506     156.902    -302.028
  H     -355.996     158.329    -303.973
  H     -348.407     157.135    -308.448
  H     -355.016     160.350    -303.199
  H     -347.769     158.241    -307.260
  H     -354.994     159.265    -301.784
  P     -356.273     155.092    -302.315
  C     -356.542     152.762    -303.439
  O     -357.181     153.951    -302.992
  O     -357.334     156.089    -301.657
  O     -355.275     154.601    -301.318
  H     -357.022     156.376    -300.780
  H     -357.271     152.103    -303.863
  H     -356.065     152.281    -302.611
  H     -355.809     153.007    -304.179

 6  7  8  9  10  11  12  13  14  15  16  26  30  31  32  33  35 0
 6-311+G(2d,p)
 ****
 37  38 0
 6-311+G(2d,p)
 ****
 1  2  3  4  5  17  18  19  20  21  22  23  24  25 0
 3-21G
 ****
 27  28  29  34  36  39  40  41  42  43  44  45  46 0
 3-21G
 ****


