%nproc=1
%NoSave
%Mem=1900MB
#P OB98/GEN NMR

erre ene a

0 1
  C      235.855      47.588    -323.061
  O      235.810      48.914    -322.562
  P      234.608      49.304    -321.568
  C      236.337      50.297    -319.892
  O      235.148      50.495    -320.639
  C      237.058      51.627    -319.666
  O      237.440      52.167    -320.959
  C      236.223      52.701    -318.958
  O      237.135      53.491    -318.182
  C      235.679      53.530    -320.104
  O      235.283      54.834    -319.700
  C      236.860      53.487    -321.070
  N      237.027      56.772    -324.911
  C      237.481      56.907    -323.612
  N      238.119      58.060    -323.319
  N      237.321      55.996    -322.685
  C      236.681      54.892    -323.135
  C      236.150      54.658    -324.380
  C      236.365      55.655    -325.404
  O      236.055      55.539    -326.588
  N      235.490      53.456    -324.431
  C      235.690      52.931    -323.236
  N      236.446      53.744    -322.435
  O      234.543      48.051    -320.581
  O      233.294      49.590    -322.224
  H      234.587      54.741    -319.016
  H      233.885      47.395    -320.885
  H      237.194      57.501    -325.587
  H      235.322      51.973    -322.903
  H      237.634      54.226    -320.813
  H      234.803      53.030    -320.535
  H      238.302      58.791    -323.989
  H      235.437      52.289    -318.316
  H      238.489      58.171    -322.382
  H      237.984      51.431    -319.109
  H      237.001      49.632    -320.452
  H      236.095      49.821    -318.936
  P      236.673      53.941    -316.711
  C      239.151      53.581    -316.050
  O      237.984      54.368    -315.903
  O      236.258      52.545    -316.030
  O      235.536      54.906    -316.679
  H      235.536      52.698    -315.394
  H      240.021      54.188    -315.786
  H      239.268      53.223    -317.073
  H      239.099      52.725    -315.370
  H      236.703      47.478    -323.704
  H      234.961      47.384    -323.612
  H      235.935      46.902    -322.244

 3  4  5  6  7  8  9  10  11  12  23  26  30  31 0
 6-311+G(2d,p)
 ****
 33  35  36  37  38 0
 6-311+G(2d,p)
 ****
 1  2  13  14  15  16  17  18  19  20  21  22  24  25 0
 3-21G
 ****
 27  28  29  32  34  39  40  41  42  43  44  45  46  47  48  49 0
 3-21G
 ****


