%nproc=1
%NoSave
%Mem=1900MB
#P OB98/GEN NMR

erre ene a

0 1
  C        6.177      99.497    -130.710
  O        6.078      98.730    -131.892
  P        5.822      97.151    -131.802
  C        7.180      95.032    -131.263
  O        7.222      96.446    -131.457
  C        8.597      94.474    -131.131
  O        9.323      94.641    -132.370
  C        9.440      95.170    -130.069
  O        9.075      94.736    -128.772
  C       10.845      94.768    -130.500
  O       11.162      93.447    -130.026
  C       10.722      94.772    -132.033
  N       14.961      96.960    -133.856
  C       14.762      95.811    -133.173
  N       13.599      95.317    -132.686
  C       12.583      96.153    -132.950
  C       12.639      97.372    -133.607
  C       13.899      97.767    -134.099
  N       14.101      98.903    -134.855
  N       11.382      97.953    -133.659
  C       10.592      97.098    -133.031
  N       11.258      95.971    -132.645
  O        5.084      96.556    -132.960
  O        4.982      96.976    -130.450
  H       11.162      93.477    -129.051
  H        4.112      96.580    -130.653
  H       15.650      95.208    -132.997
  H        9.536      97.249    -132.848
  H       11.237      93.916    -132.488
  H       11.617      95.443    -130.115
  H        9.336      96.261    -130.159
  H        8.522      93.396    -130.923
  H        6.681      94.581    -132.126
  H       15.011      99.014    -135.277
  H       13.294      99.342    -135.294
  H        6.598      94.808    -130.364
  P        9.142      95.763    -127.542
  C       11.113      97.063    -126.536
  O       10.672      95.829    -127.071
  O        8.142      95.535    -126.453
  O        8.926      97.194    -128.234
  H        8.463      97.794    -127.615
  H       11.302      97.767    -127.352
  H       12.044      96.898    -125.986
  H       10.365      97.487    -125.855
  H        6.347     100.522    -130.963
  H        6.992      99.136    -130.118
  H        5.267      99.414    -130.153

 3  4  5  6  7  8  9  10  11  12  22  25  29  30  31  32 0
 6-311+G(2d,p)
 ****
 33  36  37 0
 6-311+G(2d,p)
 ****
 1  2  13  14  15  16  17  18  19  20  21  23  24  26 0
 3-21G
 ****
 27  28  34  35  38  39  40  41  42  43  44  45  46  47  48 0
 3-21G
 ****


