%nproc=1
%NoSave
%Mem=1900MB
#P OB98/GEN NMR

erre ene a

0 1
  C      164.421     -55.273     406.596
  O      163.825     -56.467     406.113
  P      164.721     -57.674     405.559
  C      163.752     -59.588     406.980
  O      163.789     -58.978     405.695
  C      162.336     -60.050     407.304
  O      161.449     -58.906     407.209
  C      161.740     -61.091     406.354
  O      162.094     -62.437     406.654
  C      160.251     -60.896     406.612
  O      159.879     -61.557     407.839
  C      160.148     -59.376     406.773
  N      156.253     -57.784     403.859
  C      156.292     -58.395     405.064
  N      157.366     -58.806     405.767
  C      158.504     -58.484     405.120
  C      158.624     -57.861     403.890
  C      157.424     -57.500     403.246
  N      157.389     -56.860     402.023
  N      159.955     -57.720     403.540
  C      160.618     -58.242     404.552
  N      159.787     -58.709     405.532
  O      166.074     -57.777     406.169
  O      164.767     -57.442     403.975
  H      159.981     -62.515     407.685
  H      165.495     -57.956     403.578
  H      155.326     -58.583     405.528
  H      161.697     -58.304     404.612
  H      159.420     -59.086     407.541
  H      159.623     -61.318     405.823
  H      161.961     -60.848     405.305
  H      162.315     -60.411     408.339
  H      164.068     -58.841     407.725
  H      156.498     -56.523     401.703
  H      158.262     -56.502     401.647
  H      164.457     -60.422     407.016
  P      162.350     -63.423     405.409
  C      163.602     -65.121     406.953
  O      162.553     -64.878     406.047
  O      163.417     -62.980     404.470
  O      160.899     -63.517     404.728
  H      160.218     -63.961     405.261
  H      163.476     -66.117     407.390
  H      163.607     -64.384     407.759
  H      164.568     -65.099     406.426
  H      163.656     -54.597     406.918
  H      164.993     -54.818     405.814
  H      165.063     -55.503     407.420

 3  4  5  6  7  8  9  10  11  12  22  25  29  30  31  32 0
 6-311+G(2d,p)
 ****
 33  36  37 0
 6-311+G(2d,p)
 ****
 1  2  13  14  15  16  17  18  19  20  21  23  24  26 0
 3-21G
 ****
 27  28  34  35  38  39  40  41  42  43  44  45  46  47  48 0
 3-21G
 ****


