%nproc=1
%NoSave
%Mem=1900MB
#P OB98/GEN NMR

erre ene a

0 1
  C      145.667    -657.895    -272.787
  O      146.078    -659.184    -272.377
  H      146.391    -657.508    -273.511
  H      145.627    -657.214    -271.933
  H      144.687    -657.945    -273.266
  P      145.279    -659.917    -271.196
  C      145.728    -662.190    -272.324
  O      145.833    -661.421    -271.130
  C      146.824    -663.255    -272.380
  O      148.114    -662.585    -272.426
  C      146.820    -664.205    -271.170
  O      147.167    -665.514    -271.636
  C      147.925    -663.644    -270.304
  O      148.450    -664.623    -269.425
  C      148.913    -663.094    -271.338
  N      149.769    -662.061    -270.752
  C      151.149    -662.242    -270.891
  O      151.588    -663.232    -271.480
  N      151.996    -661.352    -270.282
  C      151.511    -660.383    -269.566
  N      152.408    -659.546    -268.970
  C      150.057    -660.164    -269.375
  C      149.251    -661.028    -269.991
  O      143.791    -659.802    -271.244
  O      145.871    -659.250    -269.869
  H      147.715    -665.079    -268.967
  H      145.341    -658.473    -269.617
  H      149.709    -659.351    -268.759
  H      148.176    -660.954    -269.900
  H      149.551    -663.902    -271.727
  H      147.527    -662.822    -269.691
  H      145.855    -664.234    -270.651
  H      146.721    -663.812    -273.321
  H      153.394    -659.755    -269.106
  H      145.835    -661.507    -273.174
  H      152.157    -658.796    -268.352
  H      144.738    -662.665    -272.374
  P      146.195    -666.769    -271.353
  C      145.454    -667.169    -273.780
  O      146.162    -667.703    -272.664
  O      144.848    -666.400    -270.819
  O      147.007    -667.655    -270.293
  H      146.373    -668.130    -269.722
  H      145.493    -667.864    -274.593
  H      145.904    -666.245    -274.079
  H      144.434    -666.997    -273.506

 6  7  8  9  10  11  12  13  14  15  16  26  30  31  32  33  35 0
 6-311+G(2d,p)
 ****
 37  38 0
 6-311+G(2d,p)
 ****
 1  2  3  4  5  17  18  19  20  21  22  23  24  25 0
 3-21G
 ****
 27  28  29  34  36  39  40  41  42  43  44  45  46 0
 3-21G
 ****


