%nproc=1
%NoSave
%Mem=1900MB
#P OB98/GEN NMR

erre ene a

0 1
  C     -318.765    -366.916    -119.074
  O     -318.005    -367.501    -118.032
  H     -318.685    -365.826    -118.997
  H     -319.818    -367.196    -118.987
  H     -318.376    -367.227    -120.047
  P     -318.022    -369.094    -117.876
  C     -318.879    -368.635    -115.476
  O     -319.015    -369.418    -116.657
  C     -318.922    -369.527    -114.232
  O     -318.947    -368.718    -113.040
  C     -320.151    -370.425    -114.156
  O     -320.025    -371.517    -115.051
  C     -320.133    -370.794    -112.679
  O     -319.155    -371.813    -112.411
  C     -319.706    -369.446    -112.039
  N     -320.831    -368.649    -111.556
  C     -321.362    -369.023    -110.317
  O     -320.897    -369.991    -109.706
  N     -322.423    -368.303    -109.816
  C     -322.883    -367.284    -110.466
  N     -323.929    -366.615    -109.913
  C     -322.324    -366.830    -111.756
  C     -321.319    -367.558    -112.244
  O     -316.684    -369.764    -117.780
  O     -318.845    -369.600    -119.154
  H     -319.467    -372.616    -112.876
  H     -318.235    -369.828    -119.885
  H     -322.732    -365.963    -112.262
  H     -320.853    -367.296    -113.190
  H     -319.026    -369.622    -111.191
  H     -321.101    -371.174    -112.333
  H     -321.059    -369.852    -114.357
  H     -317.997    -370.119    -114.212
  H     -324.267    -366.949    -109.014
  H     -319.715    -367.926    -115.461
  H     -324.256    -365.713    -110.243
  H     -317.943    -368.064    -115.498
  P     -321.227    -371.941    -116.026
  C     -321.916    -373.880    -114.478
  O     -322.318    -372.659    -115.089
  O     -320.826    -372.721    -117.232
  O     -321.942    -370.549    -116.373
  H     -321.417    -370.050    -117.051
  H     -322.719    -374.262    -113.883
  H     -321.063    -373.704    -113.856
  H     -321.664    -374.592    -115.236

 6  7  8  9  10  11  12  13  14  15  16  26  30  31  32  33  35 0
 6-311+G(2d,p)
 ****
 37  38 0
 6-311+G(2d,p)
 ****
 1  2  3  4  5  17  18  19  20  21  22  23  24  25 0
 3-21G
 ****
 27  28  29  34  36  39  40  41  42  43  44  45  46 0
 3-21G
 ****


