%nproc=1
%NoSave
%Mem=1900MB
#P OB98/GEN NMR

erre ene a

0 1
  C       90.159     216.643       0.094
  O       89.901     217.554       1.143
  P       90.256     217.168       2.656
  C       91.917     219.094       3.033
  O       91.742     217.681       2.969
  C       91.883     219.570       4.483
  O       92.971     218.994       5.239
  C       92.043     221.074       4.646
  O       90.877     221.777       4.255
  C       92.387     221.171       6.126
  O       91.205     221.093       6.932
  C       93.259     219.912       6.324
  N       94.677     220.221       6.396
  C       95.371     219.674       7.482
  O       94.770     219.043       8.352
  N       96.728     219.867       7.556
  C       97.315     220.638       6.697
  N       98.669     220.745       6.782
  C       96.591     221.364       5.633
  C       95.292     221.094       5.528
  O       89.994     215.747       3.029
  O       89.351     218.158       3.532
  H       88.871     217.634       4.203
  H       91.486     221.238       7.856
  H       97.118     222.050       4.985
  H       94.681     221.564       4.763
  H       92.964     219.389       7.242
  H       92.890     222.112       6.375
  H       92.894     221.420       4.049
  H       90.936     219.234       4.930
  H       99.133     220.218       7.513
  H       91.108     219.570       2.469
  H       99.245     221.040       5.996
  H       92.868     219.361       2.561
  P       91.092     223.136       3.432
  C       90.027     222.692       1.115
  O       91.210     222.748       1.883
  O       92.581     223.576       3.828
  O       90.106     224.215       3.743
  H       92.631     224.547       3.892
  H       90.291     222.765       0.056
  H       89.347     223.513       1.364
  H       89.522     221.737       1.286
  H       89.857     217.076      -0.837
  H       89.610     215.740       0.262
  H       91.206     216.423       0.062

 3  4  5  6  7  8  9  10  11  12  13  24  27  28  29  30  32 0
 6-311+G(2d,p)
 ****
 34  35 0
 6-311+G(2d,p)
 ****
 1  2  14  15  16  17  18  19  20  21  22  23  25  26 0
 3-21G
 ****
 31  33  36  37  38  39  40  41  42  43  44  45  46 0
 3-21G
 ****


