%nproc=1
%NoSave
%Mem=1900MB
#P OB98/GEN NMR

erre ene a

0 1
  C       52.723     -64.414      11.446
  O       51.349     -64.733      11.705
  P       50.716     -66.000      10.958
  C       51.558     -68.456      10.792
  O       51.328     -67.326      11.620
  C       52.001     -69.654      11.638
  O       53.273     -69.411      12.282
  C       51.030     -70.005      12.756
  O       49.954     -70.806      12.286
  C       51.923     -70.825      13.673
  O       52.042     -72.171      13.168
  C       53.264     -70.091      13.563
  N       54.235     -69.528      18.495
  C       54.108     -70.675      17.740
  N       54.268     -71.847      18.393
  N       53.845     -70.677      16.458
  C       53.727     -69.435      15.937
  C       53.831     -68.222      16.581
  C       54.107     -68.236      18.001
  O       54.218     -67.251      18.725
  N       53.642     -67.178      15.714
  C       53.443     -67.752      14.545
  N       53.469     -69.122      14.628
  O       51.431     -65.960       9.523
  O       49.229     -65.961      10.834
  H       51.156     -72.574      13.236
  H       50.853     -66.371       8.855
  H       54.433     -69.585      19.481
  H       53.279     -67.223      13.614
  H       54.120     -70.776      13.581
  H       51.518     -70.904      14.687
  H       54.523     -71.919      19.365
  H       50.680     -69.104      13.276
  H       54.210     -72.698      17.848
  H       52.111     -70.518      10.972
  H       52.322     -68.230      10.042
  H       50.646     -68.678      10.231
  P       48.461     -70.342      12.644
  C       47.178     -68.779      11.016
  O       47.739     -70.055      11.244
  O       48.683     -68.886      13.272
  O       47.735     -71.244      13.581
  H       48.000     -68.705      13.946
  H       46.878     -68.711       9.967
  H       47.903     -67.989      11.227
  H       46.291     -68.643      11.643
  H       53.001     -63.550      12.012
  H       52.852     -64.214      10.403
  H       53.341     -65.240      11.730

 3  4  5  6  7  8  9  10  11  12  23  26  30  31 0
 6-311+G(2d,p)
 ****
 33  35  36  37  38 0
 6-311+G(2d,p)
 ****
 1  2  13  14  15  16  17  18  19  20  21  22  24  25 0
 3-21G
 ****
 27  28  29  32  34  39  40  41  42  43  44  45  46  47  48  49 0
 3-21G
 ****


