%nproc=1
%NoSave
%Mem=1900MB
#P OB98/GEN NMR

erre ene a

0 1
  C     -538.408     671.428     -39.662
  O     -538.747     671.164     -38.320
  H     -538.304     670.476     -40.190
  H     -537.451     671.951     -39.710
  H     -539.179     672.021     -40.160
  P     -539.241     672.371     -37.390
  C     -541.630     671.527     -37.860
  O     -540.771     672.652     -37.770
  C     -543.100     671.954     -37.925
  O     -543.532     672.365     -36.593
  C     -543.358     673.131     -38.870
  O     -544.685     672.986     -39.389
  C     -543.300     674.319     -37.926
  O     -543.900     675.468     -38.481
  C     -543.999     673.724     -36.689
  N     -543.731     674.493     -35.475
  C     -544.789     675.246     -34.963
  O     -545.905     675.306     -35.516
  N     -544.531     675.961     -33.832
  C     -543.317     676.057     -33.198
  O     -543.150     676.750     -32.206
  C     -542.226     675.272     -33.810
  C     -542.482     674.542     -34.895
  O     -538.365     673.585     -37.384
  O     -539.358     671.729     -35.931
  H     -544.875     675.415     -38.401
  H     -539.180     672.401     -35.248
  H     -545.295     676.505     -33.453
  H     -541.245     675.332     -33.340
  H     -541.692     673.953     -35.362
  H     -545.088     673.704     -36.836
  H     -542.267     674.576     -37.689
  H     -542.636     673.208     -39.683
  H     -543.718     671.083     -38.198
  H     -541.462     670.907     -36.960
  H     -541.378     670.933     -38.747
  P     -545.010     673.135     -40.965
  C     -545.912     670.722     -41.010
  O     -545.051     671.682     -41.622
  O     -544.129     674.120     -41.670
  O     -546.543     673.602     -41.018
  H     -546.700     674.141     -41.821
  H     -545.848     669.796     -41.542
  H     -546.920     671.079     -41.036
  H     -545.613     670.571     -39.994

 6  7  8  9  10  11  12  13  14  15  16  26  31  32  33  34  35 0
 6-311+G(2d,p)
 ****
 36  37 0
 6-311+G(2d,p)
 ****
 1  2  3  4  5  17  18  19  20  21  22  23  24  25 0
 3-21G
 ****
 27  28  29  30  38  39  40  41  42  43  44  45 0
 3-21G
 ****


