%nproc=1
%NoSave
%Mem=1900MB
#P OB98/GEN NMR

erre ene a

0 1
  C      -45.463    -963.689    -180.125
  O      -46.788    -963.984    -179.720
  P      -46.991    -965.245    -178.740
  C      -48.036    -964.021    -176.689
  O      -46.907    -964.665    -177.248
  C      -47.588    -962.845    -175.815
  O      -47.061    -961.779    -176.641
  C      -48.693    -962.224    -174.974
  O      -48.908    -962.980    -173.794
  C      -48.136    -960.830    -174.717
  O      -47.180    -960.845    -173.637
  C      -47.447    -960.513    -176.053
  N      -48.046    -956.079    -178.419
  C      -47.178    -956.439    -177.408
  N      -46.315    -955.487    -176.995
  N      -47.152    -957.619    -176.849
  C      -48.083    -958.462    -177.349
  C      -49.014    -958.228    -178.338
  C      -48.990    -956.933    -178.985
  O      -49.672    -956.603    -179.954
  N      -49.801    -959.325    -178.561
  C      -49.335    -960.234    -177.731
  N      -48.278    -959.768    -176.988
  O      -45.628    -966.063    -178.915
  O      -48.203    -966.074    -179.012
  H      -47.626    -961.114    -172.818
  H      -45.753    -966.805    -179.544
  H      -48.004    -955.166    -178.829
  H      -49.709    -961.241    -177.641
  H      -46.528    -959.930    -175.914
  H      -48.916    -960.126    -174.433
  H      -46.284    -954.546    -177.359
  H      -49.617    -962.148    -175.554
  H      -45.665    -955.725    -176.256
  H      -46.766    -963.201    -175.175
  H      -48.588    -964.736    -176.063
  H      -48.698    -963.672    -177.489
  P      -50.241    -963.864    -173.707
  C      -49.880    -965.973    -172.230
  O      -49.793    -965.389    -173.523
  O      -50.815    -963.819    -175.204
  O      -51.254    -963.372    -172.726
  H      -51.788    -963.790    -175.182
  H      -50.054    -967.038    -172.343
  H      -50.690    -965.532    -171.646
  H      -48.931    -965.819    -171.705
  H      -45.469    -962.835    -180.769
  H      -45.055    -964.528    -180.649
  H      -44.864    -963.481    -179.263

 3  4  5  6  7  8  9  10  11  12  23  26  30  31 0
 6-311+G(2d,p)
 ****
 33  35  36  37  38 0
 6-311+G(2d,p)
 ****
 1  2  13  14  15  16  17  18  19  20  21  22  24  25 0
 3-21G
 ****
 27  28  29  32  34  39  40  41  42  43  44  45  46  47  48  49 0
 3-21G
 ****


