%nproc=1
%NoSave
%Mem=1900MB
#P OB98/GEN NMR

erre ene a

0 1
  C     -697.284     401.130      43.902
  O     -698.102     401.702      44.912
  P     -697.488     402.453      46.182
  C     -699.992     402.457      46.887
  O     -698.638     402.529      47.313
  C     -700.944     401.966      47.995
  O     -700.840     402.853      49.130
  C     -702.404     402.044      47.503
  O     -702.940     400.991      46.729
  C     -703.196     402.419      48.750
  O     -703.824     401.285      49.361
  C     -702.159     403.042      49.684
  N     -702.999     406.606      53.187
  C     -702.573     405.307      53.367
  N     -702.552     404.854      54.626
  N     -702.222     404.526      52.363
  C     -702.386     405.092      51.145
  C     -702.802     406.367      50.847
  C     -703.143     407.235      51.962
  O     -703.611     408.374      51.843
  N     -702.923     406.577      49.496
  C     -702.644     405.404      48.978
  N     -702.354     404.454      49.931
  O     -696.650     403.664      45.923
  O     -696.507     401.307      46.777
  H     -704.220     400.744      48.662
  H     -695.736     401.761      47.170
  H     -703.328     407.134      53.976
  H     -702.661     405.160      47.910
  H     -702.172     402.536      50.654
  H     -704.005     403.096      48.484
  H     -702.946     405.372      55.389
  H     -702.466     402.926      46.860
  H     -702.394     403.857      54.776
  H     -700.655     400.980      48.349
  H     -700.033     401.781      46.016
  H     -700.317     403.449      46.541
  P     -703.831     401.174      45.402
  C     -703.234     398.698      45.204
  O     -704.143     399.700      44.814
  O     -702.831     401.792      44.329
  O     -705.035     402.047      45.561
  H     -703.339     402.245      43.622
  H     -703.330     397.836      44.524
  H     -703.454     398.365      46.233
  H     -702.191     399.053      45.179
  H     -697.903     400.682      43.153
  H     -696.652     400.383      44.335
  H     -696.681     401.893      43.457

 3  4  5  6  7  8  9  10  11  12  23  26  30  31 0
 6-311+G(2d,p)
 ****
 33  35  36  37  38 0
 6-311+G(2d,p)
 ****
 1  2  13  14  15  16  17  18  19  20  21  22  24  25 0
 3-21G
 ****
 27  28  29  32  34  39  40  41  42  43  44  45  46  47  48  49 0
 3-21G
 ****


