%nproc=1
%NoSave
%Mem=1900MB
#P OB98/GEN NMR

erre ene a

0 1
  C     -142.041     131.449       5.648
  O     -141.198     130.703       4.760
  P     -141.776     129.528       3.832
  C     -141.537     127.457       5.331
  O     -141.053     128.132       4.175
  C     -140.453     126.635       6.049
  O     -140.299     125.327       5.431
  C     -139.059     127.276       6.071
  O     -138.445     126.846       7.286
  C     -138.390     126.625       4.871
  O     -136.971     126.710       4.899
  C     -138.936     125.204       4.989
  N     -135.994     122.254       2.007
  C     -135.852     122.661       3.287
  N     -136.691     123.414       4.024
  C     -137.801     123.717       3.327
  C     -138.093     123.363       2.019
  C     -137.121     122.601       1.343
  N     -137.240     122.223       0.023
  N     -139.313     123.879       1.631
  C     -139.745     124.543       2.685
  N     -138.867     124.472       3.736
  O     -141.800     129.857       2.372
  O     -143.273     129.307       4.362
  H     -136.655     126.247       5.698
  H     -143.878     129.246       3.599
  H     -134.932     122.352       3.779
  H     -140.666     125.110       2.737
  H     -138.388     124.628       5.744
  H     -138.735     127.120       3.953
  H     -139.083     128.366       6.005
  H     -140.805     126.455       7.073
  H     -142.356     126.793       5.031
  H     -136.449     121.761      -0.401
  H     -138.006     122.582      -0.523
  H     -141.948     128.200       6.025
  P     -138.105     127.873       8.468
  C     -135.641     127.183       8.377
  O     -136.790     127.316       9.194
  O     -139.246     128.179       9.382
  O     -137.583     129.192       7.722
  H     -137.641     129.954       8.326
  H     -135.742     126.290       7.750
  H     -134.761     127.073       9.016
  H     -135.511     128.065       7.739
  H     -141.455     132.178       6.168
  H     -142.492     130.784       6.355
  H     -142.805     131.942       5.084

 3  4  5  6  7  8  9  10  11  12  22  25  29  30  31  32 0
 6-311+G(2d,p)
 ****
 33  36  37 0
 6-311+G(2d,p)
 ****
 1  2  13  14  15  16  17  18  19  20  21  23  24  26 0
 3-21G
 ****
 27  28  34  35  38  39  40  41  42  43  44  45  46  47  48 0
 3-21G
 ****


