%nproc=1
%NoSave
%Mem=1900MB
#P OB98/GEN NMR

erre ene a

0 1
  C      126.866    -396.888    -109.038
  O      126.016    -397.110    -107.927
  P      124.746    -396.142    -107.763
  C      124.469    -393.592    -107.321
  O      125.333    -394.727    -107.290
  C      124.842    -392.608    -106.218
  O      124.676    -393.226    -104.930
  C      126.289    -392.147    -106.269
  O      126.468    -391.167    -107.277
  C      126.485    -391.615    -104.852
  O      126.065    -390.247    -104.749
  C      125.566    -392.541    -104.018
  N      126.311    -393.479    -103.194
  C      126.602    -393.047    -101.894
  O      126.242    -391.931    -101.517
  N      127.316    -393.880    -101.070
  C      127.715    -395.032    -101.510
  N      128.421    -395.819    -100.649
  C      127.449    -395.514    -102.881
  C      126.754    -394.691    -103.662
  O      124.027    -396.707    -106.453
  O      123.834    -396.105    -108.945
  H      126.260    -389.978    -103.828
  H      123.070    -396.506    -106.470
  H      127.804    -396.485    -103.198
  H      126.517    -394.963    -104.685
  H      124.925    -391.940    -103.356
  H      127.535    -391.651    -104.542
  H      126.961    -392.997    -106.439
  H      124.164    -391.748    -106.280
  H      128.592    -395.460     -99.718
  H      123.439    -393.920    -107.171
  H      128.753    -396.741    -100.889
  H      124.544    -393.120    -108.308
  P      127.879    -391.130    -108.035
  C      130.319    -390.876    -107.280
  O      128.961    -390.902    -106.874
  O      127.841    -389.691    -108.742
  O      128.163    -392.227    -109.002
  H      128.615    -389.589    -109.325
  H      130.931    -390.562    -106.431
  H      130.459    -390.169    -108.100
  H      130.635    -391.877    -107.590
  H      127.665    -397.599    -109.023
  H      127.269    -395.898    -108.987
  H      126.306    -396.999    -109.943

 3  4  5  6  7  8  9  10  11  12  13  21  23  27  28  29  30  32 0
 6-311+G(2d,p)
 ****
 34  35 0
 6-311+G(2d,p)
 ****
 1  2  14  15  16  17  18  19  20  22  24  25  26 0
 3-21G
 ****
 31  33  36  37  38  39  40  41  42  43  44  45  46 0
 3-21G
 ****


