%nproc=1
%NoSave
%Mem=1900MB
#P OB98/GEN NMR

erre ene a

0 1
  C      210.117      66.237     190.319
  O      210.024      67.633     190.126
  H      210.414      66.045     191.352
  H      210.877      65.816     189.654
  H      209.154      65.752     190.135
  P      209.430      68.187     188.746
  C      207.083      68.979     188.016
  O      207.833      68.137     188.879
  C      205.579      68.808     188.266
  O      205.207      67.432     187.948
  C      205.148      69.066     189.724
  O      203.801      69.561     189.680
  C      205.200      67.656     190.290
  O      204.587      67.554     191.552
  C      204.562      66.892     189.119
  N      204.705      65.443     189.165
  C      203.576      64.687     189.470
  O      202.464      65.162     189.699
  N      203.762      63.330     189.512
  C      204.930      62.669     189.269
  O      205.027      61.447     189.291
  C      206.088      63.520     188.959
  C      205.930      64.844     188.917
  O      209.981      67.566     187.506
  O      209.741      69.757     188.807
  H      210.516      69.959     188.248
  H      205.100      68.085     192.198
  H      202.949      62.767     189.724
  H      207.036      63.030     188.772
  H      206.762      65.500     188.683
  H      203.498      67.144     189.049
  H      206.239      67.348     190.435
  H      205.785      69.785     190.242
  H      205.029      69.457     187.572
  H      207.316      68.704     186.982
  H      207.377      70.019     188.184
  P      203.436      71.105     189.456
  C      205.257      72.714     188.546
  O      204.343      71.661     188.247
  O      203.514      71.937     190.696
  O      201.954      71.112     188.856
  H      201.513      71.954     189.069
  H      205.791      72.985     187.659
  H      205.949      72.384     189.293
  H      204.717      73.563     188.910

 6  7  8  9  10  11  12  13  14  15  16  27  31  32  33  34  35 0
 6-311+G(2d,p)
 ****
 36  37 0
 6-311+G(2d,p)
 ****
 1  2  3  4  5  17  18  19  20  21  22  23  24  25 0
 3-21G
 ****
 26  28  29  30  38  39  40  41  42  43  44  45 0
 3-21G
 ****


