%nproc=1
%NoSave
%Mem=1900MB
#P OB98/GEN NMR

erre ene a

0 1
  C      250.217     580.802     306.822
  O      249.792     579.609     306.201
  H      250.692     581.440     306.068
  H      250.956     580.577     307.600
  H      249.381     581.349     307.255
  P      248.813     578.633     307.002
  C      249.505     576.205     306.459
  O      248.676     577.297     306.113
  C      249.638     575.222     305.296
  O      248.328     574.631     305.026
  C      250.131     575.860     303.994
  O      250.881     574.866     303.275
  C      248.828     576.154     303.282
  O      249.020     576.382     301.899
  C      248.013     574.913     303.653
  N      246.573     575.102     303.449
  C      246.067     574.708     302.212
  O      246.755     574.250     301.306
  N      244.724     574.900     302.034
  C      243.868     575.490     302.917
  O      242.678     575.665     302.691
  C      244.475     575.927     304.193
  C      245.775     575.716     304.391
  O      247.517     579.223     307.443
  O      249.684     578.127     308.250
  H      249.688     575.759     301.544
  H      249.107     577.936     309.011
  H      244.331     574.606     301.152
  H      243.829     576.414     304.914
  H      246.250     576.032     305.319
  H      248.318     574.048     303.050
  H      248.360     577.054     303.696
  H      250.746     576.748     304.153
  H      250.299     574.393     305.602
  H      249.056     575.700     307.333
  H      250.498     576.574     306.749
  P      252.435     575.036     302.935
  C      252.427     574.039     300.557
  O      252.869     573.890     301.906
  O      253.317     575.156     304.134
  O      252.510     576.378     302.040
  H      253.372     576.799     302.159
  H      252.780     573.215     299.973
  H      252.812     574.952     300.154
  H      251.358     574.062     300.533

 6  7  8  9  10  11  12  13  14  15  16  26  31  32  33  34  35 0
 6-311+G(2d,p)
 ****
 36  37 0
 6-311+G(2d,p)
 ****
 1  2  3  4  5  17  18  19  20  21  22  23  24  25 0
 3-21G
 ****
 27  28  29  30  38  39  40  41  42  43  44  45 0
 3-21G
 ****


