%nproc=1
%NoSave
%Mem=1900MB
#P OB98/GEN NMR

erre ene a

0 1
  C        6.164    -178.550      95.666
  O        6.344    -177.281      95.065
  P        5.071    -176.367      94.739
  C        4.645    -177.483      92.462
  O        4.114    -177.194      93.752
  C        3.746    -178.473      91.726
  O        3.521    -179.649      92.536
  C        2.360    -177.928      91.404
  O        2.409    -177.045      90.302
  C        1.584    -179.219      91.154
  O        1.814    -179.694      89.815
  C        2.221    -180.172      92.180
  N       -1.444    -182.978      94.354
  C       -0.954    -182.954      93.095
  N        0.001    -182.147      92.580
  C        0.436    -181.282      93.512
  C        0.006    -181.160      94.824
  C       -0.968    -182.080      95.256
  N       -1.431    -182.152      96.550
  N        0.671    -180.129      95.459
  C        1.479    -179.631      94.541
  N        1.417    -180.338      93.373
  O        5.381    -174.974      94.299
  O        4.246    -176.356      96.112
  H        1.459    -180.603      89.768
  H        4.172    -175.438      96.438
  H       -1.376    -183.686      92.413
  H        2.134    -178.780      94.680
  H        2.389    -181.170      91.757
  H        0.506    -179.092      91.275
  H        1.942    -177.425      92.287
  H        4.261    -178.789      90.809
  H        5.645    -177.915      92.590
  H       -2.018    -182.939      96.781
  H       -0.883    -181.712      97.283
  H        4.734    -176.555      91.888
  P        1.258    -175.945      90.107
  C       -0.034    -177.411      88.446
  O       -0.073    -176.732      89.688
  O        1.614    -174.782      89.242
  O        0.933    -175.477      91.607
  H        0.665    -174.539      91.602
  H       -0.163    -176.692      87.630
  H       -0.853    -178.136      88.416
  H        0.915    -177.942      88.321
  H        7.117    -179.015      95.809
  H        5.559    -179.163      95.031
  H        5.680    -178.431      96.613

 3  4  5  6  7  8  9  10  11  12  22  25  29  30  31  32 0
 6-311+G(2d,p)
 ****
 33  36  37 0
 6-311+G(2d,p)
 ****
 1  2  13  14  15  16  17  18  19  20  21  23  24  26 0
 3-21G
 ****
 27  28  34  35  38  39  40  41  42  43  44  45  46  47  48 0
 3-21G
 ****


