%nproc=1
%NoSave
%Mem=1900MB
#P OB98/GEN NMR

erre ene a

0 1
  C      278.345     375.631      78.149
  O      279.429     374.988      78.793
  H      278.628     376.660      77.934
  H      277.468     375.639      78.800
  H      278.108     375.127      77.208
  P      279.253     373.450      79.221
  C      277.495     372.482      80.848
  O      278.494     373.474      80.635
  C      276.684     372.809      82.092
  O      276.162     374.152      82.007
  C      275.481     371.896      82.312
  O      275.890     370.677      82.909
  C      274.631     372.762      83.221
  O      275.177     372.733      84.558
  C      274.833     374.159      82.603
  N      271.812     377.809      80.787
  C      272.615     377.802      81.916
  N      272.581     378.906      82.689
  N      273.374     376.792      82.263
  C      273.260     375.726      81.428
  C      272.482     375.617      80.292
  C      271.702     376.754      79.892
  O      270.979     376.812      78.889
  N      272.575     374.356      79.749
  C      273.433     373.722      80.530
  N      273.872     374.510      81.574
  O      280.502     372.620      79.224
  O      278.152     372.887      78.206
  H      276.029     373.206      84.526
  H      278.567     372.486      77.420
  H      271.239     378.616      80.586
  H      273.781     372.707      80.381
  H      274.808     374.954      83.357
  H      273.593     372.435      83.289
  H      271.819     379.567      82.632
  H      274.922     371.723      81.377
  H      273.123     378.897      83.547
  H      277.360     372.783      82.954
  H      278.013     371.521      80.971
  H      276.834     372.414      79.973
  P      275.013     369.335      82.751
  C      272.478     368.838      82.826
  O      273.508     369.787      83.071
  O      275.489     368.173      83.548
  O      274.971     369.066      81.176
  H      275.724     368.521      80.844
  H      271.531     369.266      83.080
  H      272.647     367.966      83.423
  H      272.481     368.568      81.791

 6  7  8  9  10  11  12  13  14  15  26  29  33  34 0
 6-311+G(2d,p)
 ****
 36  38  39  40  41 0
 6-311+G(2d,p)
 ****
 1  2  3  4  5  16  17  18  19  20  21  22  23  24  25 0
 3-21G
 ****
 27  28  30  31  32  35  37  42  43  44  45  46  47 0
 3-21G
 ****
 48  49 0
 3-21G
 ****


