%nproc=1
%NoSave
%Mem=1900MB
#P OB98/GEN NMR

erre ene a

0 1
  C     -266.568       7.645    -220.989
  O     -267.077       8.566    -221.943
  P     -268.615       8.415    -222.383
  C     -267.836       6.879    -224.381
  O     -268.688       7.072    -223.259
  C     -267.993       5.458    -224.927
  O     -267.666       4.504    -223.894
  C     -269.405       5.105    -225.378
  O     -269.714       5.670    -226.641
  C     -269.347       3.579    -225.356
  O     -268.709       3.088    -226.553
  C     -268.457       3.311    -224.126
  N     -269.211       2.941    -222.936
  C     -269.462       1.579    -222.755
  O     -269.075       0.718    -223.547
  N     -270.195       1.243    -221.646
  C     -270.738       2.119    -220.752
  O     -271.425       1.763    -219.796
  C     -270.472       3.540    -221.002
  C     -269.732       3.881    -222.066
  O     -268.736       9.601    -223.449
  O     -269.569       8.492    -221.232
  H     -267.873       9.804    -223.865
  H     -268.541       2.140    -226.406
  H     -270.368       0.265    -221.484
  H     -270.900       4.266    -220.318
  H     -269.533       4.925    -222.275
  H     -267.735       2.509    -224.346
  H     -270.338       3.120    -225.301
  H     -270.134       5.454    -224.630
  H     -267.281       5.326    -225.754
  H     -266.798       7.043    -224.079
  H     -268.094       7.620    -225.150
  P     -271.096       6.499    -226.742
  C     -272.412       4.550    -227.887
  O     -272.268       5.407    -226.773
  O     -271.015       7.044    -228.245
  O     -271.231       7.558    -225.701
  H     -270.689       6.370    -228.879
  H     -273.003       3.679    -227.581
  H     -271.440       4.212    -228.255
  H     -272.943       5.074    -228.687
  H     -265.539       7.865    -220.794
  H     -266.653       6.650    -221.373
  H     -267.128       7.726    -220.081

 3  4  5  6  7  8  9  10  11  12  13  24  28  29  30  31  32 0
 6-311+G(2d,p)
 ****
 33  34 0
 6-311+G(2d,p)
 ****
 1  2  14  15  16  17  18  19  20  21  22  23  25  26  27 0
 3-21G
 ****
 35  36  37  38  39  40  41  42  43  44  45 0
 3-21G
 ****


