%nproc=1
%NoSave
%Mem=1900MB
#P OB98/GEN NMR

erre ene a

0 1
  C      157.106    -157.834    -198.375
  O      158.048    -156.815    -198.624
  H      157.314    -158.265    -197.390
  H      157.187    -158.628    -199.122
  H      156.092    -157.425    -198.371
  P      158.098    -156.140    -200.082
  C      158.238    -153.857    -198.918
  O      158.853    -154.732    -199.858
  C      158.723    -154.134    -197.495
  O      160.172    -154.221    -197.482
  C      158.316    -153.057    -196.481
  O      157.797    -153.683    -195.305
  C      159.624    -152.344    -196.167
  O      159.597    -151.704    -194.895
  C      160.628    -153.490    -196.327
  N      162.001    -153.025    -196.490
  C      163.010    -153.891    -196.057
  O      162.720    -154.968    -195.533
  N      164.319    -153.503    -196.189
  C      164.599    -152.330    -196.662
  N      165.915    -152.002    -196.757
  C      163.564    -151.364    -197.088
  C      162.302    -151.775    -196.982
  O      156.777    -156.041    -200.769
  O      159.177    -157.002    -200.888
  H      158.883    -151.028    -194.903
  H      159.045    -156.869    -201.859
  H      163.847    -150.394    -197.466
  H      161.476    -151.136    -197.280
  H      160.592    -154.164    -195.459
  H      159.812    -151.577    -196.930
  H      157.568    -152.367    -196.862
  H      158.356    -155.123    -197.193
  H      166.593    -152.692    -196.456
  H      157.151    -153.982    -198.982
  H      166.248    -151.115    -197.105
  H      158.498    -152.827    -199.189
  P      156.216    -153.536    -195.065
  C      156.258    -155.669    -193.595
  O      155.848    -154.316    -193.710
  O      155.588    -154.450    -196.220
  O      155.726    -152.126    -195.144
  H      155.283    -153.894    -196.960
  H      155.947    -156.057    -192.648
  H      157.324    -155.726    -193.671
  H      155.813    -156.244    -194.380

 6  7  8  9  10  11  12  13  14  15  16  26  30  31  32  33  35 0
 6-311+G(2d,p)
 ****
 37  38 0
 6-311+G(2d,p)
 ****
 1  2  3  4  5  17  18  19  20  21  22  23  24  25 0
 3-21G
 ****
 27  28  29  34  36  39  40  41  42  43  44  45  46 0
 3-21G
 ****


