%nproc=1
%NoSave
%Mem=1900MB
#P OB98/GEN NMR

erre ene a

0 1
  C     -103.732    -305.877      35.044
  O     -103.317    -305.982      33.697
  P     -101.981    -305.251      33.193
  C     -101.327    -302.775      32.903
  O     -102.399    -303.718      32.965
  C     -101.589    -301.731      31.814
  O     -102.721    -300.897      32.169
  C     -100.424    -300.772      31.585
  O      -99.408    -301.397      30.827
  C     -101.127    -299.622      30.872
  O     -101.289    -299.897      29.469
  C     -102.509    -299.598      31.578
  N     -102.610    -298.530      32.570
  C     -103.067    -297.299      32.095
  O     -103.327    -297.150      30.896
  N     -103.170    -296.250      32.975
  C     -102.819    -296.425      34.218
  N     -102.937    -295.335      35.033
  C     -102.304    -297.701      34.742
  C     -102.220    -298.701      33.875
  O     -101.288    -305.903      32.045
  O     -101.078    -305.189      34.514
  H     -100.397    -300.153      29.136
  H     -100.703    -306.070      34.740
  H     -102.017    -297.779      35.787
  H     -101.854    -299.667      34.180
  H     -103.311    -299.466      30.838
  H     -100.577    -298.684      30.956
  H     -100.041    -300.417      32.548
  H     -101.838    -302.258      30.886
  H     -103.268    -294.475      34.628
  H     -100.402    -303.313      32.672
  H     -102.656    -295.342      36.011
  H     -101.204    -302.292      33.887
  P      -97.864    -301.131      31.188
  C      -96.378    -299.108      31.705
  O      -97.639    -299.553      31.224
  O      -96.875    -301.914      30.380
  O      -97.771    -301.549      32.737
  H      -96.968    -302.074      32.873
  H      -96.223    -298.074      31.373
  H      -95.567    -299.736      31.308
  H      -96.362    -299.142      32.794
  H     -104.638    -306.429      35.182
  H     -103.901    -304.849      35.286
  H     -102.971    -306.274      35.684

 3  4  5  6  7  8  9  10  11  12  13  23  27  28  29  30  32 0
 6-311+G(2d,p)
 ****
 34  35 0
 6-311+G(2d,p)
 ****
 1  2  14  15  16  17  18  19  20  21  22  24  25  26 0
 3-21G
 ****
 31  33  36  37  38  39  40  41  42  43  44  45  46 0
 3-21G
 ****


