%nproc=1
%NoSave
%Mem=1900MB
#P OB98/GEN NMR

erre ene a

0 1
  C      549.191     353.818    -674.571
  O      550.175     353.959    -673.538
  P      550.682     352.648    -672.756
  C      553.027     353.468    -671.948
  O      551.715     353.052    -671.599
  C      553.081     354.971    -672.239
  O      552.557     355.721    -671.104
  C      554.487     355.517    -672.523
  O      554.341     356.589    -673.470
  C      554.906     356.061    -671.168
  O      555.964     357.004    -671.250
  C      553.578     356.658    -670.697
  N      553.509     356.895    -669.254
  C      554.149     358.027    -668.752
  O      554.818     358.802    -669.428
  N      554.025     358.230    -667.400
  C      553.368     357.415    -666.514
  O      553.323     357.640    -665.312
  C      552.736     356.225    -667.098
  C      552.834     356.028    -668.416
  O      551.646     351.967    -673.843
  O      549.608     351.692    -672.347
  H      556.231     357.223    -670.335
  H      551.459     351.014    -673.897
  H      554.472     359.049    -667.023
  H      552.206     355.563    -666.432
  H      552.366     355.159    -668.866
  H      553.378     357.590    -671.224
  H      555.242     355.238    -670.533
  H      555.167     354.758    -672.915
  H      552.415     355.172    -673.087
  H      553.353     352.918    -672.842
  H      553.711     353.215    -671.127
  P      554.024     356.220    -675.001
  C      552.417     358.252    -675.360
  O      553.596     357.576    -675.733
  O      552.633     355.445    -674.827
  O      555.075     355.398    -675.669
  H      552.020     355.903    -674.219
  H      552.282     358.255    -674.276
  H      551.557     357.771    -675.828
  H      552.482     359.285    -675.707
  H      548.968     354.779    -674.985
  H      548.300     353.391    -674.159
  H      549.570     353.178    -675.340

 3  4  5  6  7  8  9  10  11  12  13  23  28  29  30  31  32 0
 6-311+G(2d,p)
 ****
 33  34 0
 6-311+G(2d,p)
 ****
 1  2  14  15  16  17  18  19  20  21  22  24  25  26 0
 3-21G
 ****
 27  35  36  37  38  39  40  41  42  43  44  45 0
 3-21G
 ****


