%nproc=1
%NoSave
%Mem=1900MB
#P OB98/GEN NMR

erre ene a

0 1
  C      -62.814      74.952    -320.612
  O      -61.955      75.907    -321.197
  H      -63.848      75.242    -320.818
  H      -62.671      74.923    -319.529
  H      -62.638      73.962    -321.040
  P      -60.370      75.711    -321.035
  C      -60.444      75.359    -323.601
  O      -59.937      74.902    -322.357
  C      -59.518      74.933    -324.737
  O      -58.145      75.274    -324.450
  C      -59.489      73.434    -325.011
  O      -60.651      72.948    -325.660
  C      -58.258      73.354    -325.896
  O      -58.578      73.834    -327.214
  C      -57.304      74.323    -325.160
  N      -56.409      73.635    -324.232
  C      -55.824      72.448    -324.688
  O      -56.072      72.016    -325.812
  N      -54.993      71.750    -323.843
  C      -54.784      72.189    -322.640
  N      -53.957      71.456    -321.843
  C      -55.394      73.425    -322.112
  C      -56.184      74.090    -322.950
  O      -59.911      75.119    -319.742
  O      -59.754      77.159    -321.329
  H      -57.837      73.579    -327.794
  H      -58.773      77.095    -321.231
  H      -55.211      73.731    -321.092
  H      -56.673      75.005    -322.633
  H      -56.699      74.895    -325.876
  H      -57.872      72.340    -326.007
  H      -59.292      72.871    -324.091
  H      -59.811      75.501    -325.629
  H      -53.555      70.614    -322.232
  H      -60.532      76.449    -323.555
  H      -53.799      71.681    -320.871
  H      -61.434      74.930    -323.783
  P      -61.082      71.431    -325.343
  C      -62.659      71.927    -323.322
  O      -61.434      71.381    -323.782
  O      -59.702      70.633    -325.460
  O      -62.147      70.873    -326.233
  H      -59.626      70.201    -326.333
  H      -62.727      71.807    -322.261
  H      -63.475      71.418    -323.791
  H      -62.700      72.968    -323.567

 6  7  8  9  10  11  12  13  14  15  16  26  30  31  32  33  35 0
 6-311+G(2d,p)
 ****
 37  38 0
 6-311+G(2d,p)
 ****
 1  2  3  4  5  17  18  19  20  21  22  23  24  25 0
 3-21G
 ****
 27  28  29  34  36  39  40  41  42  43  44  45  46 0
 3-21G
 ****


