%nproc=1
%NoSave
%Mem=1900MB
#P OB98/GEN NMR

erre ene a

0 1
  C     -105.283     549.366     453.938
  O     -104.523     550.552     453.846
  H     -104.899     548.768     454.767
  H     -105.180     548.791     453.013
  H     -106.337     549.583     454.121
  P     -105.063     551.749     452.935
  C     -106.978     552.278     454.582
  O     -105.829     552.770     453.904
  C     -107.759     553.428     455.238
  O     -109.054     552.934     455.669
  C     -107.040     553.951     456.488
  O     -107.332     555.322     456.739
  C     -107.640     553.106     457.600
  O     -107.541     553.717     458.884
  C     -109.080     552.937     457.106
  N     -110.765     550.336     461.152
  C     -109.986     551.476     461.112
  N     -109.615     551.991     462.308
  N     -109.591     552.047     460.004
  C     -109.986     551.378     458.886
  C     -110.734     550.228     458.801
  C     -111.194     549.629     460.038
  O     -111.866     548.608     460.131
  N     -110.923     549.848     457.494
  C     -110.278     550.760     456.790
  N     -109.713     551.726     457.591
  O     -106.267     551.083     452.111
  O     -104.054     552.374     452.020
  H     -108.192     553.279     459.464
  H     -106.443     551.588     451.298
  H     -111.062     549.954     462.034
  H     -110.206     550.775     455.714
  H     -109.697     553.785     457.428
  H     -107.097     552.156     457.645
  H     -109.725     551.477     463.163
  H     -105.964     553.821     456.438
  H     -108.806     552.620     462.296
  H     -107.950     554.221     454.502
  H     -106.624     551.575     455.339
  H     -107.617     551.721     453.894
  P     -106.124     556.373     456.755
  C     -106.012     556.851     454.150
  O     -106.210     557.322     455.467
  O     -104.836     555.474     456.477
  O     -106.002     557.156     458.021
  H     -104.243     555.483     457.256
  H     -106.118     557.663     453.461
  H     -106.738     556.097     453.928
  H     -105.029     556.436     454.063

 6  7  8  9  10  11  12  13  14  15  26  29  33  34 0
 6-311+G(2d,p)
 ****
 36  38  39  40  41 0
 6-311+G(2d,p)
 ****
 1  2  3  4  5  16  17  18  19  20  21  22  23  24  25 0
 3-21G
 ****
 27  28  30  31  32  35  37  42  43  44  45  46  47 0
 3-21G
 ****
 48  49 0
 3-21G
 ****


