%nproc=1
%NoSave
%Mem=1900MB
#P OB98/GEN NMR

erre ene a

0 1
  C       21.716     319.824    -168.858
  O       20.783     320.093    -167.813
  P       20.171     321.569    -167.677
  C       21.847     322.314    -165.867
  O       21.325     322.563    -167.164
  C       21.933     323.614    -165.055
  O       22.986     324.477    -165.575
  C       20.626     324.423    -165.103
  O       20.424     325.121    -163.866
  C       20.907     325.455    -166.180
  O       20.043     326.581    -166.064
  C       22.385     325.742    -165.916
  N       23.556     330.118    -168.309
  C       22.935     329.875    -167.132
  N       22.677     328.685    -166.549
  C       23.149     327.676    -167.300
  C       23.809     327.771    -168.514
  C       24.005     329.066    -169.028
  N       24.610     329.313    -170.240
  N       24.139     326.518    -168.997
  C       23.640     325.682    -168.108
  N       23.064     326.332    -167.052
  O       18.881     321.670    -166.932
  O       19.986     322.018    -169.205
  H       20.083     327.069    -166.906
  H       19.132     322.482    -169.301
  H       22.592     330.752    -166.590
  H       23.658     324.604    -168.190
  H       22.521     326.416    -165.061
  H       20.759     325.007    -167.169
  H       19.733     323.830    -165.321
  H       22.198     323.374    -164.019
  H       22.840     321.863    -165.950
  H       24.601     330.259    -170.580
  H       24.814     328.532    -170.851
  H       21.218     321.571    -165.365
  P       18.922     325.110    -163.285
  C       18.053     327.339    -164.337
  O       18.040     325.930    -164.340
  O       18.831     325.554    -161.861
  O       18.492     323.585    -163.510
  H       18.653     323.246    -164.408
  H       17.496     327.700    -165.206
  H       19.077     327.721    -164.402
  H       17.576     327.722    -163.430
  H       22.023     318.800    -168.807
  H       22.570     320.459    -168.746
  H       21.254     320.011    -169.805

 3  4  5  6  7  8  9  10  11  12  22  25  29  30  31  32 0
 6-311+G(2d,p)
 ****
 33  36  37 0
 6-311+G(2d,p)
 ****
 1  2  13  14  15  16  17  18  19  20  21  23  24  26 0
 3-21G
 ****
 27  28  34  35  38  39  40  41  42  43  44  45  46  47  48 0
 3-21G
 ****


