%nproc=1
%NoSave
%Mem=1900MB
#P OB98/GEN NMR

erre ene a

0 1
  C      116.992    -699.258    -325.450
  O      115.841    -698.435    -325.497
  H      116.980    -699.818    -324.511
  H      117.899    -698.653    -325.483
  H      116.988    -699.969    -326.281
  P      115.629    -697.502    -326.783
  C      113.571    -696.606    -328.061
  O      114.054    -697.525    -327.090
  C      112.090    -696.861    -328.327
  O      111.920    -698.052    -329.121
  C      111.257    -697.064    -327.063
  O      110.929    -695.813    -326.478
  C      110.055    -697.790    -327.638
  O      109.195    -696.851    -328.313
  C      110.719    -698.729    -328.661
  N      109.035    -703.088    -326.692
  C      108.335    -701.953    -327.067
  N      107.006    -701.969    -326.834
  N      108.900    -700.897    -327.589
  C      110.243    -700.995    -327.691
  C      111.045    -702.064    -327.341
  C      110.412    -703.248    -326.813
  O      110.992    -704.282    -326.488
  N      112.373    -701.772    -327.530
  C      112.366    -700.552    -328.025
  N      111.102    -700.032    -328.131
  O      116.480    -697.817    -327.980
  O      115.878    -696.021    -326.238
  H      108.829    -696.266    -327.623
  H      116.812    -695.756    -326.359
  H      108.550    -703.867    -326.275
  H      113.258    -700.001    -328.331
  H      110.084    -698.913    -329.535
  H      109.456    -698.294    -326.880
  H      106.583    -702.621    -326.186
  H      111.754    -697.728    -326.351
  H      106.487    -701.133    -327.055
  H      111.706    -696.021    -328.920
  H      114.152    -696.753    -328.976
  H      113.710    -695.581    -327.714
  P      110.224    -695.731    -325.038
  C      109.857    -693.676    -323.513
  O      110.738    -694.349    -324.403
  O      110.426    -696.929    -324.172
  O      108.694    -695.409    -325.359
  H      108.136    -696.217    -325.499
  H      110.320    -692.776    -323.165
  H      109.639    -694.310    -322.679
  H      108.949    -693.435    -324.025

 6  7  8  9  10  11  12  13  14  15  26  29  33  34 0
 6-311+G(2d,p)
 ****
 36  38  39  40  41 0
 6-311+G(2d,p)
 ****
 1  2  3  4  5  16  17  18  19  20  21  22  23  24  25 0
 3-21G
 ****
 27  28  30  31  32  35  37  42  43  44  45  46  47 0
 3-21G
 ****
 48  49 0
 3-21G
 ****


