%nproc=1
%NoSave
%Mem=1900MB
#P OB98/GEN NMR

erre ene a

0 1
  C     -459.869      70.230    -316.035
  O     -459.960      70.841    -317.311
  H     -460.869      70.203    -315.594
  H     -459.213      70.816    -315.389
  H     -459.494      69.212    -316.129
  P     -458.582      70.996    -318.125
  C     -456.521      72.527    -317.739
  O     -457.926      72.383    -317.626
  C     -456.131      73.998    -317.661
  O     -456.877      74.660    -316.628
  C     -454.654      74.243    -317.358
  O     -453.869      74.151    -318.543
  C     -454.694      75.654    -316.801
  O     -454.753      76.644    -317.853
  C     -456.001      75.638    -315.981
  N     -454.199      77.231    -311.544
  C     -454.278      77.885    -312.756
  N     -453.756      79.128    -312.813
  N     -454.810      77.358    -313.826
  C     -455.273      76.098    -313.634
  C     -455.259      75.358    -312.469
  C     -454.687      75.952    -311.291
  O     -454.655      75.462    -310.166
  N     -455.831      74.122    -312.671
  C     -456.146      74.105    -313.954
  N     -455.816      75.271    -314.582
  O     -459.070      71.346    -319.616
  O     -457.686      69.812    -318.099
  H     -454.819      77.521    -317.450
  H     -458.425      70.992    -320.248
  H     -453.788      77.703    -310.756
  H     -456.612      73.277    -314.471
  H     -456.511      76.599    -315.998
  H     -453.801      75.878    -316.208
  H     -453.054      79.437    -312.151
  H     -454.288      73.539    -316.594
  H     -453.782      79.601    -313.710
  H     -456.400      74.452    -318.618
  H     -456.196      72.106    -318.698
  H     -456.037      71.957    -316.933
  P     -452.297      73.809    -318.371
  C     -450.153      75.216    -317.993
  O     -451.571      75.200    -318.095
  O     -451.846      73.448    -319.870
  O     -451.999      72.709    -317.407
  H     -450.993      72.970    -319.841
  H     -449.820      76.216    -317.808
  H     -449.726      74.861    -318.908
  H     -449.846      74.583    -317.187

 6  7  8  9  10  11  12  13  14  15  26  29  33  34 0
 6-311+G(2d,p)
 ****
 36  38  39  40  41 0
 6-311+G(2d,p)
 ****
 1  2  3  4  5  16  17  18  19  20  21  22  23  24  25 0
 3-21G
 ****
 27  28  30  31  32  35  37  42  43  44  45  46  47 0
 3-21G
 ****
 48  49 0
 3-21G
 ****


