%nproc=1
%NoSave
%Mem=1900MB
#P OB98/GEN NMR

erre ene a

0 1
  C      -87.275     -62.989     121.398
  O      -88.245     -62.984     120.368
  P      -87.829     -62.689     118.854
  C      -86.911     -60.722     117.492
  O      -87.342     -61.160     118.774
  C      -85.963     -59.529     117.602
  O      -84.770     -59.935     118.327
  C      -85.503     -58.949     116.255
  O      -85.352     -57.536     116.445
  C      -84.138     -59.587     116.065
  O      -83.315     -58.870     115.152
  C      -83.635     -59.590     117.506
  N      -78.999     -61.097     115.963
  C      -79.831     -60.141     115.504
  N      -81.062     -59.816     115.953
  C      -81.412     -60.599     116.987
  C      -80.683     -61.637     117.545
  C      -79.406     -61.871     116.998
  N      -78.534     -62.821     117.480
  N      -81.407     -62.244     118.554
  C      -82.546     -61.586     118.600
  N      -82.566     -60.541     117.716
  O      -88.841     -63.074     117.826
  O      -86.467     -63.509     118.658
  H      -82.470     -59.350     115.056
  H      -86.633     -64.302     118.113
  H      -79.457     -59.549     114.671
  H      -83.380     -61.815     119.248
  H      -83.277     -58.601     117.819
  H      -84.258     -60.609     115.683
  H      -86.185     -59.156     115.425
  H      -86.455     -58.756     118.203
  H      -87.797     -60.430     116.917
  H      -77.597     -62.813     117.100
  H      -78.696     -63.219     118.402
  H      -86.416     -61.549     116.965
  P      -85.511     -56.543     115.197
  C      -84.040     -55.815     113.234
  O      -84.231     -56.767     114.266
  O      -85.808     -55.122     115.550
  O      -86.700     -57.199     114.344
  H      -87.063     -56.541     113.727
  H      -84.690     -56.062     112.387
  H      -82.999     -55.851     112.905
  H      -84.268     -54.803     113.584
  H      -87.749     -63.205     122.333
  H      -86.805     -62.029     121.450
  H      -86.538     -63.737     121.190

 3  4  5  6  7  8  9  10  11  12  22  25  29  30  31  32 0
 6-311+G(2d,p)
 ****
 33  36  37 0
 6-311+G(2d,p)
 ****
 1  2  13  14  15  16  17  18  19  20  21  23  24  26 0
 3-21G
 ****
 27  28  34  35  38  39  40  41  42  43  44  45  46  47  48 0
 3-21G
 ****


