%nproc=1
%NoSave
%Mem=1900MB
#P OB98/GEN NMR

erre ene a

0 1
  C     -543.590     912.285     111.526
  O     -543.853     913.121     110.410
  H     -542.973     912.840     112.230
  H     -543.043     911.404     111.204
  H     -544.526     911.999     112.019
  P     -544.876     912.585     109.305
  C     -546.781     914.297     109.774
  O     -545.783     913.843     108.861
  C     -547.072     915.774     109.528
  O     -545.956     916.571     110.012
  C     -547.303     916.137     108.061
  O     -548.336     917.125     107.963
  C     -545.961     916.757     107.634
  O     -546.101     917.646     106.523
  C     -545.501     917.424     108.943
  N     -544.055     917.609     108.968
  C     -543.597     918.936     108.836
  O     -544.403     919.867     108.706
  N     -542.245     919.165     108.806
  C     -541.427     918.158     108.803
  N     -540.087     918.458     108.743
  C     -541.860     916.753     108.872
  C     -543.188     916.552     108.955
  O     -545.886     911.682     110.150
  O     -544.259     911.839     108.170
  H     -545.212     918.002     106.303
  H     -546.235     910.937     109.621
  H     -541.140     915.947     108.842
  H     -543.599     915.549     109.002
  H     -545.996     918.403     109.063
  H     -545.271     915.971     107.350
  H     -547.548     915.266     107.433
  H     -547.958     916.064     110.122
  H     -539.831     919.438     108.679
  H     -546.411     914.178     110.788
  H     -539.365     917.767     108.691
  H     -547.687     913.707     109.633
  P     -548.927     917.402     106.503
  C     -551.436     916.792     106.919
  O     -550.461     917.822     106.669
  O     -549.002     915.942     105.843
  O     -548.099     918.347     105.683
  H     -548.314     915.857     105.147
  H     -552.407     917.233     107.005
  H     -551.193     916.285     107.829
  H     -551.432     916.093     106.109

 6  7  8  9  10  11  12  13  14  15  16  26  30  31  32  33  35 0
 6-311+G(2d,p)
 ****
 37  38 0
 6-311+G(2d,p)
 ****
 1  2  3  4  5  17  18  19  20  21  22  23  24  25 0
 3-21G
 ****
 27  28  29  34  36  39  40  41  42  43  44  45  46 0
 3-21G
 ****


