%nproc=1
%NoSave
%Mem=1900MB
#P OB98/GEN NMR

erre ene a

0 1
  C     -618.840     161.449    -183.203
  O     -618.726     160.063    -182.927
  H     -617.906     161.789    -183.662
  H     -619.001     162.008    -182.275
  H     -619.662     161.626    -183.899
  P     -620.011     159.363    -182.266
  C     -620.985     158.869    -184.612
  O     -621.163     159.533    -183.367
  C     -622.285     158.874    -185.411
  O     -622.087     158.289    -186.712
  C     -623.420     158.088    -184.769
  O     -624.056     158.846    -183.761
  C     -624.330     157.873    -185.971
  O     -625.101     159.065    -186.216
  C     -623.328     157.656    -187.118
  N     -624.191     153.865    -190.472
  C     -624.743     155.086    -190.340
  N     -624.497     156.029    -189.398
  C     -623.574     155.595    -188.529
  C     -622.919     154.371    -188.539
  C     -623.253     153.486    -189.574
  N     -622.681     152.233    -189.704
  N     -622.031     154.280    -187.484
  C     -622.110     155.452    -186.881
  N     -623.052     156.272    -187.456
  O     -620.346     159.798    -180.882
  O     -619.622     157.817    -182.416
  H     -625.693     159.195    -185.447
  H     -619.176     157.654    -183.266
  H     -625.482     155.355    -191.091
  H     -621.493     155.762    -186.048
  H     -623.660     158.142    -188.045
  H     -625.043     157.058    -185.811
  H     -623.076     157.111    -184.406
  H     -622.579     159.923    -185.567
  H     -620.650     157.837    -184.450
  H     -623.099     151.600    -190.371
  H     -622.077     151.912    -188.972
  H     -620.203     159.406    -185.162
  P     -625.116     158.165    -182.762
  C     -623.477     157.856    -180.805
  O     -624.276     157.204    -181.788
  O     -626.270     157.506    -183.438
  O     -625.580     159.350    -181.794
  H     -626.534     159.266    -181.598
  H     -622.966     157.123    -180.217
  H     -624.104     158.447    -180.171
  H     -622.762     158.488    -181.289

 6  7  8  9  10  11  12  13  14  15  25  28  32  33  34  35 0
 6-311+G(2d,p)
 ****
 36  39  40 0
 6-311+G(2d,p)
 ****
 1  2  3  4  5  16  17  18  19  20  21  22  23  24 0
 3-21G
 ****
 26  27  29  30  31  37  38  41  42  43  44  45  46  47 0
 3-21G
 ****
 48 0
 3-21G
 ****


