%nproc=1
%NoSave
%Mem=1900MB
#P OB98/GEN NMR

erre ene a

0 1
  C     -124.181    -212.323     -29.546
  O     -124.342    -213.302     -28.537
  H     -123.142    -212.330     -29.883
  H     -124.412    -211.335     -29.139
  H     -124.829    -212.537     -30.402
  P     -125.846    -213.691     -28.137
  C     -125.008    -216.141     -28.310
  O     -125.795    -215.200     -27.594
  C     -124.843    -217.421     -27.493
  O     -124.054    -217.172     -26.315
  C     -126.158    -218.034     -27.016
  O     -126.762    -218.838     -28.021
  C     -125.665    -218.889     -25.861
  O     -125.053    -220.093     -26.373
  C     -124.590    -217.985     -25.232
  N     -125.997    -217.697     -20.367
  C     -125.617    -218.794     -21.114
  N     -125.619    -219.985     -20.477
  N     -125.269    -218.734     -22.373
  C     -125.337    -217.480     -22.889
  C     -125.709    -216.315     -22.249
  C     -126.072    -216.399     -20.854
  O     -126.409    -215.453     -20.143
  N     -125.656    -215.240     -23.094
  C     -125.277    -215.754     -24.248
  N     -125.076    -217.113     -24.174
  O     -126.569    -213.822     -29.561
  O     -126.546    -212.705     -27.261
  H     -125.766    -220.634     -26.759
  H     -127.099    -213.017     -29.720
  H     -126.266    -217.800     -19.400
  H     -125.130    -215.191     -25.158
  H     -123.755    -218.563     -24.811
  H     -126.467    -219.201     -25.191
  H     -125.895    -220.107     -19.513
  H     -126.849    -217.268     -26.638
  H     -125.341    -220.805     -21.005
  H     -124.288    -218.141     -28.110
  H     -124.024    -215.705     -28.504
  H     -125.498    -216.364     -29.263
  P     -128.364    -218.935     -28.056
  C     -128.304    -219.359     -30.612
  O     -128.753    -219.812     -29.343
  O     -128.797    -217.449     -28.469
  O     -129.003    -219.349     -26.775
  H     -129.241    -217.008     -27.717
  H     -128.635    -220.037     -31.370
  H     -127.235    -219.313     -30.617
  H     -128.704    -218.385     -30.805

 6  7  8  9  10  11  12  13  14  15  26  29  33  34 0
 6-311+G(2d,p)
 ****
 36  38  39  40  41 0
 6-311+G(2d,p)
 ****
 1  2  3  4  5  16  17  18  19  20  21  22  23  24  25 0
 3-21G
 ****
 27  28  30  31  32  35  37  42  43  44  45  46  47 0
 3-21G
 ****
 48  49 0
 3-21G
 ****


