%nproc=1
%NoSave
%Mem=1900MB
#P OB98/GEN NMR

erre ene a

0 1
  C      133.802      98.445    -198.878
  O      134.888      98.816    -198.026
  P      134.671      98.615    -196.448
  C      133.533      99.891    -194.501
  O      133.923      99.911    -195.866
  C      133.241     101.302    -193.972
  O      134.473     102.013    -193.684
  C      132.436     102.164    -194.946
  O      131.594     103.017    -194.166
  C      133.501     103.011    -195.613
  O      132.940     104.187    -196.190
  C      134.457     103.247    -194.432
  N      135.800     103.645    -194.849
  C      136.014     105.001    -195.094
  O      135.078     105.800    -195.025
  N      137.270     105.421    -195.453
  C      138.218     104.551    -195.609
  N      139.441     105.028    -195.968
  C      138.024     103.099    -195.417
  C      136.805     102.725    -195.041
  O      136.153      98.732    -195.853
  O      134.044      97.306    -196.095
  H      132.726     104.811    -195.465
  H      136.334      97.981    -195.257
  H      138.838     102.410    -195.578
  H      136.565     101.684    -194.873
  H      134.066     104.032    -193.771
  H      134.001     102.437    -196.403
  H      131.828     101.582    -195.646
  H      132.693     101.201    -193.027
  H      139.537     106.029    -196.081
  H      134.325      99.441    -193.897
  H      140.248     104.442    -196.117
  H      132.660      99.241    -194.390
  P      130.017     102.990    -194.447
  C      128.618     104.260    -196.187
  O      129.734     104.306    -195.321
  O      129.429     103.427    -193.019
  O      129.401     101.719    -194.923
  H      128.456     103.382    -193.037
  H      128.471     105.251    -196.622
  H      127.717     103.980    -195.635
  H      128.801     103.547    -196.996
  H      134.071      98.626    -199.898
  H      132.938      99.025    -198.628
  H      133.584      97.406    -198.746

 3  4  5  6  7  8  9  10  11  12  13  21  23  27  28  29  30  32 0
 6-311+G(2d,p)
 ****
 34  35 0
 6-311+G(2d,p)
 ****
 1  2  14  15  16  17  18  19  20  22  24  25  26 0
 3-21G
 ****
 31  33  36  37  38  39  40  41  42  43  44  45  46 0
 3-21G
 ****


