%nproc=1
%NoSave
%Mem=1900MB
#P OB98/GEN NMR

erre ene a

0 1
  C       74.416      17.373      37.117
  O       75.586      17.879      37.727
  H       74.165      16.415      37.580
  H       74.590      17.209      36.049
  H       73.576      18.059      37.256
  P       76.070      19.361      37.360
  C       76.982      20.539      35.250
  O       76.647      19.303      35.866
  C       77.963      20.319      34.091
  O       79.237      19.856      34.641
  C       77.505      19.264      33.063
  O       78.059      19.642      31.795
  C       78.181      18.018      33.612
  O       78.150      16.942      32.710
  C       79.550      18.614      33.973
  N       80.398      17.777      34.814
  C       81.098      16.742      34.200
  O       81.055      16.485      32.995
  N       81.873      15.974      35.030
  C       82.028      16.147      36.376
  O       82.761      15.448      37.063
  C       81.256      17.251      36.967
  C       80.494      18.009      36.172
  O       76.963      20.019      38.359
  O       74.697      20.170      37.177
  H       74.524      20.706      37.975
  H       78.526      17.235      31.851
  H       82.391      15.222      34.602
  H       81.347      17.409      38.035
  H       79.922      18.836      36.580
  H       80.096      18.873      33.058
  H       77.659      17.672      34.509
  H       76.417      19.188      32.980
  H       78.160      21.283      33.607
  H       77.443      21.184      36.007
  H       76.068      21.016      34.882
  P       77.184      20.263      30.600
  C       75.236      19.462      29.089
  O       76.289      19.085      29.970
  O       77.989      21.015      29.586
  O       76.112      21.220      31.310
  H       75.840      21.922      30.691
  H       74.726      18.586      28.747
  H       75.643      19.988      28.251
  H       74.547      20.096      29.607

 6  7  8  9  10  11  12  13  14  15  16  27  31  32  33  34  35 0
 6-311+G(2d,p)
 ****
 36  37 0
 6-311+G(2d,p)
 ****
 1  2  3  4  5  17  18  19  20  21  22  23  24  25 0
 3-21G
 ****
 26  28  29  30  38  39  40  41  42  43  44  45 0
 3-21G
 ****


