%nproc=1
%NoSave
%Mem=1900MB
#P OB98/GEN NMR

erre ene a

0 1
  C     -312.125     362.805     412.287
  O     -311.632     362.740     413.632
  P     -311.537     361.265     414.287
  C     -309.047     361.656     414.956
  O     -310.360     361.303     415.367
  C     -308.482     362.768     415.828
  O     -309.217     363.998     415.636
  C     -308.567     362.496     417.333
  O     -307.517     361.635     417.759
  C     -308.389     363.891     417.894
  O     -306.971     364.215     417.946
  C     -309.100     364.790     416.843
  N     -311.759     367.993     419.710
  C     -310.408     367.886     419.551
  N     -309.638     368.808     420.218
  N     -309.827     367.001     418.783
  C     -310.713     366.175     418.154
  C     -312.097     366.196     418.249
  C     -312.706     367.170     419.104
  O     -313.906     367.297     419.326
  N     -312.652     365.229     417.443
  C     -311.633     364.640     416.859
  N     -310.419     365.178     417.259
  O     -310.903     360.381     413.096
  O     -312.852     360.720     414.747
  H     -306.622     363.875     418.799
  H     -311.167     359.451     413.182
  H     -312.147     368.722     420.309
  H     -311.695     363.847     416.135
  H     -308.508     365.672     416.617
  H     -308.767     363.998     418.908
  H     -310.005     369.556     420.751
  H     -309.555     362.120     417.597
  H     -308.629     368.746     420.066
  H     -307.434     362.933     415.535
  H     -309.063     361.971     413.912
  H     -308.424     360.753     415.002
  P     -307.850     360.051     417.824
  C     -305.336     359.969     418.530
  O     -306.636     359.418     418.643
  O     -307.583     359.583     416.319
  O     -309.215     359.722     418.284
  H     -308.119     358.810     416.103
  H     -305.391     361.078     418.558
  H     -304.893     359.651     417.583
  H     -304.724     359.629     419.366
  H     -312.143     363.824     411.963
  H     -313.115     362.401     412.250
  H     -311.485     362.238     411.645

 3  4  5  6  7  8  9  10  11  12  23  26  30  31  33  0
 6-311+G(2d,p)
 ****
 35  36  37  38 0
 6-311+G(2d,p)
 ****
 1  2  13  14  15  16  17  18  19  20  21  22  24  25  27  28  29 0
 3-21G
 ****
 32  34  39  40  41  42  43  44  45  46  47  48  49 0
 3-21G
 ****


