%nproc=1
%NoSave
%Mem=1900MB
#P OB98/GEN NMR

erre ene a

0 1
  C       12.000     -55.159     202.430
  O       10.983     -54.401     201.813
  P       10.027     -53.441     202.665
  C        8.129     -55.078     202.071
  O        8.525     -53.714     202.158
  C        6.787     -55.196     201.339
  O        6.476     -56.613     201.159
  C        5.623     -54.550     202.117
  O        4.855     -53.613     201.360
  C        4.856     -55.757     202.633
  O        3.511     -55.480     202.976
  C        5.089     -56.777     201.514
  N        4.776     -58.142     201.926
  C        3.508     -58.624     201.616
  O        2.649     -57.983     201.018
  N        3.213     -59.876     202.079
  C        3.997     -60.633     202.898
  O        3.629     -61.705     203.356
  C        5.310     -60.055     203.223
  C        5.647     -58.868     202.714
  O       10.417     -52.001     202.680
  O       10.019     -54.128     204.112
  H        3.009     -55.360     202.149
  H        9.688     -55.043     204.128
  H        2.298     -60.237     201.862
  H        5.949     -60.627     203.881
  H        6.608     -58.418     202.936
  H        4.498     -56.540     200.629
  H        5.352     -56.102     203.549
  H        5.994     -53.965     202.966
  H        6.904     -54.739     200.352
  H        8.022     -55.480     203.081
  H        8.909     -55.660     201.566
  P        4.846     -52.031     201.598
  C        3.033     -52.322     203.439
  O        3.451     -51.637     202.276
  O        5.226     -51.207     200.413
  O        5.897     -51.826     202.788
  H        6.308     -50.944     202.712
  H        1.940     -52.322     203.470
  H        3.406     -51.796     204.321
  H        3.389     -53.355     203.448
  H       12.520     -55.729     201.688
  H       11.565     -55.821     203.149
  H       12.687     -54.502     202.921

 3  4  5  6  7  8  9  10  11  12  13  23  28  29  30  31  32 0
 6-311+G(2d,p)
 ****
 33  34 0
 6-311+G(2d,p)
 ****
 1  2  14  15  16  17  18  19  20  21  22  24  25  26  27 0
 3-21G
 ****
 35  36  37  38  39  40  41  42  43  44  45 0
 3-21G
 ****


