%nproc=1
%NoSave
%Mem=1900MB
#P OB98/GEN NMR

erre ene a

0 1
  C       -6.742     401.288     684.108
  O       -5.328     401.323     683.866
  P       -4.276     400.627     684.852
  C       -2.911     398.613     683.969
  O       -3.056     400.037     683.989
  C       -1.721     398.177     683.114
  O       -1.896     398.574     681.733
  C       -0.375     398.769     683.549
  O        0.133     398.067     684.675
  C        0.446     398.612     682.271
  O        0.952     397.275     682.160
  C       -0.606     398.891     681.184
  N        1.562     402.105     677.832
  C        1.724     400.767     678.055
  N        1.115     399.985     678.959
  C        0.243     400.714     679.698
  C       -0.045     402.066     679.587
  C        0.674     402.779     678.610
  N        0.515     404.131     678.394
  N       -0.988     402.449     680.526
  C       -1.295     401.334     681.168
  N       -0.579     400.257     680.700
  O       -4.879     399.632     685.800
  O       -3.603     401.835     685.663
  H        0.221     396.660     682.362
  H       -3.305     401.527     686.544
  H        2.442     400.275     677.397
  H       -2.013     401.266     681.971
  H       -0.461     398.229     680.323
  H        1.309     399.294     682.241
  H       -0.499     399.836     683.776
  H       -1.673     397.081     683.134
  H       -3.841     398.181     683.550
  H        1.086     404.576     677.694
  H       -0.110     404.655     678.995
  H       -2.793     398.256     684.998
  P        0.062     398.744     686.133
  C       -0.143     397.840     688.526
  O        0.279     397.568     687.201
  O       -1.117     399.619     686.382
  O        1.439     399.576     686.232
  H        1.297     400.347     686.816
  H        0.619     398.456     689.033
  H       -0.253     396.897     689.071
  H       -1.104     398.374     688.532
  H       -7.251     401.813     683.327
  H       -6.955     401.753     685.048
  H       -7.075     400.271     684.130

 3  4  5  6  7  8  9  10  11  12  22  25  29  30  31  32 0
 6-311+G(2d,p)
 ****
 33  36  37 0
 6-311+G(2d,p)
 ****
 1  2  13  14  15  16  17  18  19  20  21  23  24  26 0
 3-21G
 ****
 27  28  34  35  38  39  40  41  42  43  44  45  46  47  48 0
 3-21G
 ****


