%nproc=1
%NoSave
%Mem=1900MB
#P OB98/GEN NMR

erre ene a

0 1
  C       85.548      53.683     -73.544
  O       86.654      54.266     -72.880
  P       87.617      55.289     -73.641
  C       87.344      57.657     -74.578
  O       86.692      56.423     -74.304
  C       87.069      58.123     -76.008
  O       87.784      57.259     -76.933
  C       85.590      58.105     -76.416
  O       85.396      59.203     -77.314
  C       85.469      56.796     -77.178
  O       84.342      56.763     -78.046
  C       86.818      56.768     -77.887
  N       86.612      53.406     -81.731
  C       86.091      54.643     -81.591
  N       86.168      55.465     -80.525
  C       86.873      54.895     -79.534
  C       87.438      53.631     -79.520
  C       87.304      52.871     -80.696
  N       87.858      51.622     -80.869
  N       88.032      53.382     -78.297
  C       87.828      54.476     -77.591
  N       87.188      55.440     -78.320
  O       88.601      54.666     -74.574
  O       88.360      56.073     -72.460
  H       83.546      56.982     -77.526
  H       89.285      55.766     -72.389
  H       85.544      55.025     -82.448
  H       88.118      54.620     -76.560
  H       86.840      57.429     -78.762
  H       85.373      55.966     -76.469
  H       84.895      58.167     -75.574
  H       87.485      59.132     -76.123
  H       88.419      57.508     -74.448
  H       87.813      51.225     -81.795
  H       88.589      51.316     -80.230
  H       87.011      58.419     -73.864
  P       83.994      59.981     -77.336
  C       82.564      61.161     -75.573
  O       83.567      60.190     -75.808
  O       82.948      59.388     -78.219
  O       84.396      61.462     -77.805
  H       83.600      61.931     -78.117
  H       83.015      62.157     -75.575
  H       82.114      60.976     -74.594
  H       81.783      61.115     -76.338
  H       85.031      53.032     -72.871
  H       85.893      53.123     -74.388
  H       84.884      54.454     -73.875

 3  4  5  6  7  8  9  10  11  12  22  25  29  30  31  32 0
 6-311+G(2d,p)
 ****
 33  36  37 0
 6-311+G(2d,p)
 ****
 1  2  13  14  15  16  17  18  19  20  21  23  24  26 0
 3-21G
 ****
 27  28  34  35  38  39  40  41  42  43  44  45  46  47  48 0
 3-21G
 ****


