%nproc=1
%NoSave
%Mem=1900MB
#P OB98/GEN NMR

erre ene a

0 1
  C      -61.056     232.143     166.946
  O      -60.565     232.367     168.252
  H      -61.030     231.070     166.739
  H      -60.413     232.654     166.224
  H      -62.085     232.499     166.847
  P      -60.872     233.794     168.917
  C      -58.750     235.255     168.590
  O      -60.024     234.880     168.087
  C      -57.985     236.069     167.549
  O      -58.671     237.344     167.358
  C      -56.528     236.380     167.940
  O      -55.715     236.339     166.759
  C      -56.605     237.820     168.412
  O      -55.353     238.488     168.327
  C      -57.670     238.372     167.467
  N      -58.273     243.217     166.297
  C      -57.851     242.151     165.524
  N      -57.473     242.423     164.257
  N      -57.802     240.921     165.958
  C      -58.225     240.784     167.239
  C      -58.660     241.753     168.108
  C      -58.695     243.118     167.623
  O      -59.038     244.106     168.264
  N      -58.942     241.218     169.342
  C      -58.660     239.932     169.221
  N      -58.219     239.621     167.964
  O      -60.100     233.701     170.317
  O      -62.318     234.116     169.098
  H      -55.298     239.133     169.061
  H      -60.716     233.412     171.016
  H      -58.276     244.149     165.921
  H      -58.738     239.198     170.010
  H      -57.274     238.574     166.462
  H      -56.949     237.854     169.456
  H      -57.513     243.342     163.841
  H      -56.116     235.704     168.694
  H      -57.200     241.647     163.666
  H      -58.021     235.539     166.589
  H      -58.178     234.352     168.829
  H      -58.883     235.837     169.509
  P      -54.898     234.995     166.452
  C      -52.758     235.955     167.581
  O      -53.687     234.880     167.496
  O      -54.161     235.326     165.068
  O      -55.758     233.778     166.335
  H      -54.100     234.518     164.525
  H      -52.016     235.728     168.317
  H      -53.273     236.851     167.859
  H      -52.286     236.095     166.631

 6  7  8  9  10  11  12  13  14  15  26  29  33  34 0
 6-311+G(2d,p)
 ****
 36  38  39  40  41 0
 6-311+G(2d,p)
 ****
 1  2  3  4  5  16  17  18  19  20  21  22  23  24  25 0
 3-21G
 ****
 27  28  30  31  32  35  37  42  43  44  45  46  47 0
 3-21G
 ****
 48  49 0
 3-21G
 ****


