%nproc=1
%NoSave
%Mem=1900MB
#P OB98/GEN NMR

erre ene a

0 1
  C     -414.246    -519.807     286.867
  O     -413.248    -520.087     285.905
  P     -411.711    -520.162     286.324
  C     -410.938    -518.731     284.341
  O     -410.828    -519.995     284.987
  C     -411.122    -518.888     282.831
  O     -409.926    -519.502     282.271
  C     -412.317    -519.766     282.416
  O     -412.820    -519.220     281.190
  C     -411.667    -521.119     282.142
  O     -412.454    -521.953     281.311
  C     -410.350    -520.655     281.518
  N     -408.897    -525.230     279.742
  C     -410.013    -524.496     279.531
  N     -410.341    -523.300     280.064
  C     -409.365    -522.868     280.878
  C     -408.190    -523.516     281.215
  C     -407.953    -524.750     280.583
  N     -406.807    -525.492     280.760
  N     -407.468    -522.771     282.138
  C     -408.201    -521.700     282.355
  N     -409.331    -521.683     281.570
  O     -411.334    -521.337     287.167
  O     -411.446    -518.789     287.103
  H     -413.333    -522.064     281.712
  H     -411.372    -518.958     288.063
  H     -410.731    -524.924     278.849
  H     -407.974    -520.910     283.062
  H     -410.470    -520.352     280.466
  H     -411.496    -521.641     283.085
  H     -413.104    -519.828     283.170
  H     -411.205    -517.894     282.394
  H     -410.014    -518.175     284.537
  H     -406.682    -526.296     280.165
  H     -405.991    -525.042     281.165
  H     -411.776    -518.165     284.768
  P     -414.391    -518.918     281.039
  C     -414.945    -521.110     279.821
  O     -414.881    -519.697     279.731
  O     -414.775    -517.480     281.124
  O     -415.052    -519.783     282.229
  H     -415.956    -519.460     282.400
  H     -413.940    -521.531     279.693
  H     -415.596    -521.487     279.027
  H     -415.344    -521.419     280.794
  H     -415.206    -519.800     286.394
  H     -414.058    -518.850     287.307
  H     -414.229    -520.559     287.628

 3  4  5  6  7  8  9  10  11  12  22  25  29  30  31  32 0
 6-311+G(2d,p)
 ****
 33  36  37 0
 6-311+G(2d,p)
 ****
 1  2  13  14  15  16  17  18  19  20  21  23  24  26 0
 3-21G
 ****
 27  28  34  35  38  39  40  41  42  43  44  45  46  47  48 0
 3-21G
 ****


