%nproc=1
%NoSave
%Mem=1900MB
#P OB98/GEN NMR

erre ene a

0 1
  C      -68.286    -282.046      -8.173
  O      -69.391    -281.171      -8.380
  P      -69.419    -279.772      -7.601
  C      -71.666    -280.160      -6.260
  O      -70.279    -279.913      -6.264
  C      -72.264    -279.681      -4.926
  O      -71.872    -280.568      -3.858
  C      -71.812    -278.278      -4.532
  O      -72.629    -277.276      -5.105
  C      -71.894    -278.336      -3.020
  O      -73.259    -278.202      -2.586
  C      -71.379    -279.771      -2.745
  N      -69.917    -279.974      -2.625
  C      -69.211    -279.350      -1.601
  O      -69.720    -278.610      -0.761
  N      -67.866    -279.606      -1.553
  C      -67.196    -280.534      -2.294
  O      -65.999    -280.765      -2.169
  C      -68.013    -281.275      -3.259
  C      -69.307    -280.962      -3.389
  O      -70.313    -278.834      -8.536
  O      -68.065    -279.183      -7.347
  H      -73.300    -278.506      -1.662
  H      -69.780    -278.099      -8.890
  H      -67.326    -279.107      -0.864
  H      -67.535    -282.054      -3.837
  H      -69.922    -281.502      -4.102
  H      -71.827    -280.171      -1.828
  H      -71.349    -277.514      -2.562
  H      -70.762    -278.128      -4.804
  H      -73.358    -279.711      -5.007
  H      -71.874    -281.222      -6.402
  H      -72.138    -279.630      -7.096
  P      -72.106    -276.443      -6.368
  C      -71.016    -274.615      -4.939
  O      -70.797    -275.664      -5.861
  O      -73.125    -275.611      -7.072
  O      -71.486    -277.570      -7.328
  H      -72.143    -277.848      -8.009
  H      -70.047    -274.279      -4.556
  H      -71.627    -274.962      -4.100
  H      -71.511    -273.779      -5.437
  H      -68.417    -282.931      -8.760
  H      -68.229    -282.310      -7.138
  H      -67.382    -281.554      -8.465

 3  4  5  6  7  8  9  10  11  12  13  23  28  29  30  31  32 0
 6-311+G(2d,p)
 ****
 33  34 0
 6-311+G(2d,p)
 ****
 1  2  14  15  16  17  18  19  20  21  22  24  25  26  27 0
 3-21G
 ****
 35  36  37  38  39  40  41  42  43  44  45 0
 3-21G
 ****


