%nproc=1
%NoSave
%Mem=1900MB
#P OB98/GEN NMR

erre ene a

0 1
  C      124.631      -6.561       9.810
  O      123.631      -6.338      10.780
  P      123.841      -6.767      12.307
  C      123.546      -4.358      13.171
  O      123.050      -5.691      13.203
  C      122.610      -3.424      13.948
  O      121.340      -3.334      13.230
  C      122.313      -3.926      15.375
  O      122.552      -2.962      16.401
  C      120.880      -4.421      15.264
  O      120.203      -4.501      16.504
  C      120.300      -3.463      14.219
  N      119.046      -3.948      13.649
  C      117.902      -3.817      14.429
  O      117.879      -3.315      15.549
  N      116.755      -4.346      13.905
  C      116.663      -5.080      12.761
  O      115.621      -5.609      12.401
  C      117.912      -5.219      11.998
  C      119.025      -4.639      12.454
  O      125.257      -6.986      12.721
  O      122.912      -8.064      12.450
  H      119.978      -3.593      16.781
  H      121.970      -7.915      12.262
  H      115.919      -4.258      14.460
  H      117.871      -5.804      11.091
  H      119.961      -4.725      11.913
  H      120.127      -2.471      14.639
  H      120.909      -5.437      14.851
  H      122.968      -4.764      15.641
  H      123.069      -2.432      13.965
  H      123.600      -4.027      12.132
  H      124.562      -4.331      13.579
  P      123.603      -3.133      17.595
  C      123.639      -0.534      17.551
  O      123.778      -1.715      18.313
  O      124.878      -3.817      17.227
  O      122.798      -3.993      18.681
  H      123.423      -4.528      19.202
  H      124.251       0.249      18.005
  H      122.593      -0.216      17.570
  H      123.960      -0.682      16.517
  H      124.293      -6.203       8.860
  H      124.836      -7.609       9.744
  H      125.522      -6.040      10.090

 3  4  5  6  7  8  9  10  11  12  13  23  28  29  30  31  32 0
 6-311+G(2d,p)
 ****
 33  34 0
 6-311+G(2d,p)
 ****
 1  2  14  15  16  17  18  19  20  21  22  24  25  26  27 0
 3-21G
 ****
 35  36  37  38  39  40  41  42  43  44  45 0
 3-21G
 ****


