%nproc=1
%NoSave
%Mem=1900MB
#P OB98/GEN NMR

erre ene a

0 1
  C      279.684     -67.542      96.994
  O      279.269     -67.261      95.670
  P      280.306     -66.617      94.630
  C      278.137     -66.099      93.327
  O      279.534     -66.398      93.242
  C      277.623     -65.576      91.992
  O      278.247     -64.317      91.665
  C      277.917     -66.500      90.812
  O      277.039     -67.610      90.812
  C      277.744     -65.549      89.634
  O      276.355     -65.399      89.301
  C      278.299     -64.229      90.211
  N      281.241     -63.131      86.201
  C      279.948     -63.510      86.292
  N      279.245     -63.821      87.400
  C      280.027     -63.740      88.489
  C      281.372     -63.401      88.551
  C      281.991     -63.063      87.338
  N      283.293     -62.618      87.232
  N      281.824     -63.460      89.863
  C      280.781     -63.829      90.566
  N      279.650     -63.947      89.790
  O      281.622     -67.308      94.525
  O      280.500     -65.120      95.169
  H      276.297     -64.819      88.517
  H      281.446     -64.974      95.393
  H      279.408     -63.545      85.353
  H      280.780     -64.015      91.632
  H      277.679     -63.369      89.934
  H      278.264     -65.884      88.742
  H      278.958     -66.838      90.852
  H      276.543     -65.402      92.090
  H      278.013     -65.329      94.103
  H      283.583     -62.260      86.338
  H      283.742     -62.276      88.072
  H      277.598     -67.001      93.624
  P      277.592     -69.070      91.162
  C      276.165     -69.726      89.124
  O      276.648     -70.123      90.391
  O      277.805     -69.353      92.609
  O      278.966     -69.156      90.333
  H      279.595     -69.721      90.825
  H      275.334     -69.023      89.259
  H      275.812     -70.595      88.588
  H      276.952     -69.239      88.539
  H      278.868     -67.965      97.541
  H      280.000     -66.637      97.468
  H      280.497     -68.237      96.973

 3  4  5  6  7  8  9  10  11  12  22  25  29  30  31  32 0
 6-311+G(2d,p)
 ****
 33  36  37 0
 6-311+G(2d,p)
 ****
 1  2  13  14  15  16  17  18  19  20  21  23  24  26 0
 3-21G
 ****
 27  28  34  35  38  39  40  41  42  43  44  45  46  47  48 0
 3-21G
 ****


