%nproc=1
%NoSave
%Mem=1900MB
#P OB98/GEN NMR

erre ene a

0 1
  C      582.885     424.486    -173.676
  O      582.979     424.952    -172.333
  P      583.762     426.270    -171.875
  C      581.650     427.724    -172.411
  O      582.684     427.390    -171.502
  C      581.073     429.141    -172.187
  O      580.252     429.520    -173.330
  C      580.147     429.150    -170.970
  O      580.697     429.289    -169.670
  C      579.076     430.179    -171.308
  O      579.384     431.479    -170.801
  C      579.083     430.195    -172.844
  N      574.630     430.924    -175.272
  C      575.537     431.852    -174.806
  N      575.188     433.154    -174.967
  N      576.665     431.548    -174.227
  C      576.838     430.216    -174.056
  C      576.008     429.196    -174.453
  C      574.781     429.541    -175.150
  O      573.959     428.755    -175.588
  N      576.504     427.971    -174.081
  C      577.631     428.247    -173.445
  N      577.870     429.605    -173.403
  O      584.893     426.682    -172.759
  O      584.389     425.854    -170.451
  H      579.065     431.526    -169.878
  H      585.235     426.336    -170.362
  H      573.782     431.209    -175.730
  H      578.289     427.522    -173.005
  H      579.129     431.225    -173.218
  H      578.114     429.890    -170.871
  H      574.289     433.456    -175.294
  H      579.633     428.184    -170.956
  H      575.745     433.836    -174.442
  H      581.871     429.879    -172.135
  H      580.862     426.973    -172.309
  H      582.014     427.640    -173.444
  P      580.478     428.285    -168.438
  C      582.400     426.595    -168.344
  O      581.919     427.854    -167.893
  O      579.942     426.935    -169.125
  O      579.523     428.761    -167.396
  H      579.534     426.354    -168.459
  H      583.216     426.282    -167.683
  H      582.791     426.696    -169.364
  H      581.615     425.841    -168.328
  H      582.306     423.586    -173.702
  H      583.866     424.290    -174.055
  H      582.412     425.232    -174.280

 3  4  5  6  7  8  9  10  11  12  23  26  30  31 0
 6-311+G(2d,p)
 ****
 33  35  36  37  38 0
 6-311+G(2d,p)
 ****
 1  2  13  14  15  16  17  18  19  20  21  22  24  25 0
 3-21G
 ****
 27  28  29  32  34  39  40  41  42  43  44  45  46  47  48  49 0
 3-21G
 ****


