%nproc=1
%NoSave
%Mem=1900MB
#P OB98/GEN NMR

erre ene a

0 1
  C      404.517    -731.076     526.447
  O      403.153    -730.853     526.147
  H      404.816    -732.034     526.008
  H      404.660    -731.126     527.525
  H      405.134    -730.281     526.016
  P      402.510    -729.500     526.725
  C      402.582    -728.431     529.092
  O      402.571    -729.628     528.326
  C      403.084    -728.706     530.506
  O      404.488    -729.068     530.489
  C      402.946    -727.530     531.461
  O      401.636    -727.454     531.998
  C      403.992    -727.878     532.510
  O      403.496    -728.842     533.461
  C      405.119    -728.473     531.658
  N      408.754    -725.379     533.300
  C      407.954    -726.263     533.998
  N      408.115    -726.290     535.337
  N      407.073    -727.045     533.430
  C      407.000    -726.884     532.087
  C      407.748    -726.058     531.287
  C      408.751    -725.217     531.919
  O      409.520    -724.457     531.346
  N      407.393    -726.190     529.964
  C      406.411    -727.075     529.980
  N      406.124    -727.514     531.248
  O      400.946    -729.661     526.406
  O      403.060    -728.230     526.159
  H      403.316    -729.681     533.006
  H      400.558    -728.779     526.254
  H      409.424    -724.808     533.788
  H      405.883    -727.424     529.104
  H      405.649    -729.284     532.183
  H      404.293    -726.996     533.093
  H      408.513    -725.502     535.841
  H      403.225    -726.588     530.967
  H      407.516    -726.919     535.860
  H      402.535    -729.580     530.887
  H      401.563    -728.031     529.140
  H      403.237    -727.697     528.596
  P      401.100    -726.012     532.467
  C      401.989    -724.364     534.277
  O      401.784    -725.719     533.889
  O      399.566    -726.291     532.836
  O      401.251    -724.935     531.441
  H      399.074    -725.445     532.867
  H      402.451    -724.335     535.242
  H      401.047    -723.858     534.317
  H      402.623    -723.881     533.564

 6  7  8  9  10  11  12  13  14  15  26  29  33  34 0
 6-311+G(2d,p)
 ****
 36  38  39  40  41 0
 6-311+G(2d,p)
 ****
 1  2  3  4  5  16  17  18  19  20  21  22  23  24  25 0
 3-21G
 ****
 27  28  30  31  32  35  37  42  43  44  45  46  47 0
 3-21G
 ****
 48  49 0
 3-21G
 ****


