%nproc=1
%NoSave
%Mem=1900MB
#P OB98/GEN NMR

erre ene a

0 1
  C      133.578    -100.184       4.637
  O      134.366    -100.893       5.579
  P      135.954    -100.932       5.344
  C      135.746    -103.044       3.847
  O      136.205    -101.705       3.960
  C      136.448    -103.767       2.695
  O      135.914    -103.272       1.434
  C      137.974    -103.571       2.654
  O      138.534    -104.795       2.163
  C      138.124    -102.451       1.637
  O      139.433    -102.319       1.112
  C      137.042    -102.847       0.635
  N      137.069    -101.192      -4.204
  C      137.459    -102.363      -3.650
  N      137.416    -102.735      -2.353
  C      136.891    -101.755      -1.597
  C      136.466    -100.504      -2.016
  C      136.569    -100.233      -3.390
  N      136.178     -99.032      -3.950
  N      136.013     -99.756      -0.948
  C      136.163    -100.541       0.100
  N      136.669    -101.764      -0.245
  O      136.457    -101.978       6.444
  O      136.644     -99.608       5.471
  H      139.463    -101.581       0.472
  H      137.305    -101.699       6.837
  H      137.861    -103.098      -4.341
  H      135.937    -100.270       1.123
  H      137.351    -103.697       0.013
  H      137.874    -101.499       2.119
  H      138.407    -103.345       3.632
  H      136.205    -104.834       2.756
  H      134.669    -103.045       3.645
  H      136.474     -98.864      -4.902
  H      136.005     -98.262      -3.315
  H      135.911    -103.565       4.796
  P      139.929    -105.307       2.772
  C      141.297    -104.632       0.702
  O      141.026    -104.368       2.066
  O      140.121    -106.683       1.971
  O      139.985    -105.436       4.254
  H      140.012    -106.557       1.012
  H      141.981    -103.864       0.327
  H      140.372    -104.601       0.117
  H      141.774    -105.611       0.600
  H      132.547    -100.243       4.918
  H      133.708    -100.616       3.667
  H      133.884     -99.159       4.615

 3  4  5  6  7  8  9  10  11  12  22  25  29  30  31  32 0
 6-311+G(2d,p)
 ****
 33  36  37 0
 6-311+G(2d,p)
 ****
 1  2  13  14  15  16  17  18  19  20  21  23  24  26 0
 3-21G
 ****
 27  28  34  35  38  39  40  41  42  43  44  45  46  47  48 0
 3-21G
 ****


