%nproc=1
%NoSave
%Mem=1900MB
#P OB98/GEN NMR

erre ene a

0 1
  C     -319.573     165.583    -209.234
  O     -319.781     166.961    -208.980
  P     -318.546     167.954    -209.246
  C     -316.083     168.046    -208.411
  O     -317.404     167.569    -208.192
  C     -315.459     168.487    -207.091
  O     -315.526     167.419    -206.127
  C     -313.985     168.860    -207.180
  O     -313.812     170.136    -207.773
  C     -313.587     168.783    -205.709
  O     -314.013     169.970    -205.021
  C     -314.399     167.570    -205.222
  N     -312.571     163.777    -202.310
  C     -313.283     164.886    -202.005
  N     -313.712     165.861    -202.833
  C     -313.346     165.604    -204.097
  C     -312.604     164.529    -204.556
  C     -312.211     163.581    -203.598
  N     -311.482     162.453    -203.914
  N     -312.404     164.615    -205.918
  C     -313.025     165.717    -206.278
  N     -313.621     166.342    -205.218
  O     -319.086     169.360    -208.712
  O     -318.099     168.031    -210.673
  H     -313.843     169.829    -204.068
  H     -318.732     170.096    -209.246
  H     -313.541     165.007    -200.956
  H     -313.074     166.100    -207.289
  H     -314.800     167.710    -204.213
  H     -312.507     168.686    -205.560
  H     -313.434     168.106    -207.756
  H     -316.042     169.335    -206.704
  H     -316.111     168.903    -209.090
  H     -311.118     161.906    -203.149
  H     -311.096     162.381    -204.846
  H     -315.491     167.253    -208.878
  P     -312.364     170.479    -208.374
  C     -310.025     170.549    -207.314
  O     -311.422     170.560    -207.075
  O     -312.536     172.016    -208.777
  O     -311.902     169.568    -209.458
  H     -312.932     172.540    -208.060
  H     -309.508     170.662    -206.359
  H     -309.747     171.378    -207.971
  H     -309.730     169.597    -207.766
  H     -320.470     165.041    -209.017
  H     -318.779     165.222    -208.614
  H     -319.313     165.445    -210.263

 3  4  5  6  7  8  9  10  11  12  22  25  29  30  31  32 0
 6-311+G(2d,p)
 ****
 33  36  37 0
 6-311+G(2d,p)
 ****
 1  2  13  14  15  16  17  18  19  20  21  23  24  26 0
 3-21G
 ****
 27  28  34  35  38  39  40  41  42  43  44  45  46  47  48 0
 3-21G
 ****


