%nproc=1
%NoSave
%Mem=1900MB
#P OB98/GEN NMR

erre ene a

0 1
  C     -156.633     -23.510      88.734
  O     -157.370     -22.896      87.695
  H     -156.293     -22.735      89.427
  H     -155.758     -24.027      88.324
  H     -157.267     -24.215      89.278
  P     -157.934     -23.865      86.545
  C     -156.056     -22.818      85.093
  O     -156.709     -24.010      85.515
  C     -154.550     -23.039      84.996
  O     -154.032     -23.521      86.253
  C     -154.127     -24.054      83.940
  O     -154.064     -23.448      82.663
  C     -152.742     -24.443      84.446
  O     -151.785     -23.445      84.037
  C     -152.918     -24.408      85.978
  N     -151.701     -27.528      89.869
  C     -151.134     -26.389      89.426
  N     -151.474     -25.641      88.356
  C     -152.527     -26.176      87.711
  C     -153.209     -27.342      88.046
  C     -152.758     -28.030      89.187
  N     -153.342     -29.198      89.634
  N     -154.237     -27.584      87.155
  C     -154.210     -26.552      86.338
  N     -153.174     -25.690      86.611
  O     -159.251     -23.472      85.956
  O     -157.919     -25.275      87.302
  H     -151.885     -23.338      83.073
  H     -157.116     -25.366      87.841
  H     -150.289     -26.030      90.007
  H     -154.926     -26.366      85.546
  H     -152.031     -23.986      86.471
  H     -152.404     -25.397      84.044
  H     -154.777     -24.945      83.950
  H     -154.076     -22.062      84.802
  H     -156.268     -22.001      85.798
  H     -152.836     -29.720      90.333
  H     -154.040     -29.634      89.047
  H     -156.467     -22.541      84.113
  P     -155.167     -23.757      81.542
  C     -153.238     -24.206      79.896
  O     -154.430     -24.718      80.485
  O     -155.826     -22.548      80.968
  O     -156.200     -24.741      82.263
  H     -157.040     -24.778      81.759
  H     -152.839     -24.928      79.214
  H     -152.520     -24.004      80.663
  H     -153.461     -23.302      79.369

 6  7  8  9  10  11  12  13  14  15  25  28  32  33  34  35 0
 6-311+G(2d,p)
 ****
 36  39  40 0
 6-311+G(2d,p)
 ****
 1  2  3  4  5  16  17  18  19  20  21  22  23  24 0
 3-21G
 ****
 26  27  29  30  31  37  38  41  42  43  44  45  46  47 0
 3-21G
 ****
 48 0
 3-21G
 ****


