%nproc=1
%NoSave
%Mem=1900MB
#P OB98/GEN NMR

erre ene a

0 1
  C      875.299    -118.211    -395.276
  O      876.260    -117.611    -396.121
  H      875.033    -119.204    -395.658
  H      875.730    -118.328    -394.277
  H      874.407    -117.587    -395.200
  P      875.817    -117.340    -397.643
  C      877.911    -118.428    -398.734
  O      876.507    -118.500    -398.510
  C      878.406    -119.737    -399.351
  O      878.409    -120.786    -398.363
  C      877.534    -120.252    -400.495
  O      877.829    -119.605    -401.725
  C      877.956    -121.712    -400.527
  O      879.238    -121.834    -401.179
  C      878.074    -122.037    -399.032
  N      875.467    -126.334    -398.072
  C      876.639    -126.102    -398.694
  N      877.268    -124.938    -398.905
  C      876.555    -123.912    -398.414
  C      875.329    -123.979    -397.771
  C      874.774    -125.266    -397.595
  N      873.562    -125.485    -396.977
  N      874.870    -122.718    -397.439
  C      875.836    -121.905    -397.847
  N      876.865    -122.579    -398.464
  O      876.653    -116.029    -398.053
  O      874.349    -117.174    -397.873
  H      879.609    -122.698    -400.911
  H      876.238    -115.598    -398.820
  H      877.159    -127.003    -399.055
  H      875.825    -120.830    -397.736
  H      878.889    -122.748    -398.824
  H      877.259    -122.351    -401.078
  H      876.459    -120.195    -400.252
  H      879.442    -119.588    -399.688
  H      878.422    -118.263    -397.779
  H      873.175    -126.415    -397.065
  H      872.982    -124.697    -396.757
  H      878.128    -117.586    -399.403
  P      876.895    -119.971    -402.988
  C      878.250    -118.613    -404.755
  O      877.850    -119.902    -404.277
  O      875.968    -118.665    -403.142
  O      876.088    -121.222    -402.837
  H      875.122    -118.894    -403.556
  H      878.879    -118.730    -405.612
  H      878.787    -118.098    -403.986
  H      877.382    -118.047    -405.024

 6  7  8  9  10  11  12  13  14  15  25  28  32  33  34  35 0
 6-311+G(2d,p)
 ****
 36  39  40 0
 6-311+G(2d,p)
 ****
 1  2  3  4  5  16  17  18  19  20  21  22  23  24 0
 3-21G
 ****
 26  27  29  30  31  37  38  41  42  43  44  45  46  47 0
 3-21G
 ****
 48 0
 3-21G
 ****


