%nproc=1
%NoSave
%Mem=1900MB
#P OB98/GEN NMR

erre ene a

0 1
  C      -25.538     114.650      14.545
  O      -26.352     113.952      15.465
  H      -25.221     113.986      13.736
  H      -26.117     115.474      14.119
  H      -24.662     115.061      15.056
  P      -25.714     112.635      16.122
  C      -25.674     113.065      18.677
  O      -24.955     113.113      17.454
  C      -24.890     112.274      19.716
  O      -24.678     110.922      19.260
  C      -23.499     112.819      20.017
  O      -23.544     113.936      20.893
  C      -22.860     111.609      20.684
  O      -23.274     111.541      22.061
  C      -23.466     110.438      19.895
  N      -20.278     106.612      18.644
  C      -21.011     106.848      19.756
  N      -21.825     107.888      20.024
  C      -21.863     108.743      18.989
  C      -21.173     108.636      17.793
  C      -20.343     107.513      17.638
  N      -19.588     107.290      16.507
  N      -21.470     109.693      16.962
  C      -22.324     110.430      17.642
  N      -22.588     109.900      18.877
  O      -24.513     112.264      15.127
  O      -26.652     111.488      16.296
  H      -22.870     110.736      22.435
  H      -24.435     111.294      15.073
  H      -20.934     106.096      20.537
  H      -22.778     111.345      17.280
  H      -23.762     109.617      20.559
  H      -21.769     111.637      20.671
  H      -22.956     113.052      19.095
  H      -25.494     112.227      20.632
  H      -26.641     112.579      18.512
  H      -19.175     106.383      16.373
  H      -19.650     107.968      15.754
  H      -25.845     114.088      19.026
  P      -22.205     114.813      21.043
  C      -22.681     115.526      18.595
  O      -21.710     115.102      19.545
  O      -21.137     113.751      21.586
  O      -22.320     115.995      21.942
  H      -20.432     114.213      22.080
  H      -22.209     115.679      17.647
  H      -23.126     116.442      18.924
  H      -23.438     114.776      18.500

 6  7  8  9  10  11  12  13  14  15  25  28  32  33  34  35 0
 6-311+G(2d,p)
 ****
 36  39  40 0
 6-311+G(2d,p)
 ****
 1  2  3  4  5  16  17  18  19  20  21  22  23  24 0
 3-21G
 ****
 26  27  29  30  31  37  38  41  42  43  44  45  46  47  48 0
 3-21G
 ****


