%nproc=1
%NoSave
%Mem=1900MB
#P OB98/GEN NMR

erre ene a

0 1
  C        4.078     -18.260      97.640
  O        3.034     -17.513      98.225
  P        1.790     -18.232      98.930
  C       -0.324     -19.472      98.137
  O        0.941     -18.937      97.761
  C       -1.065     -20.000      96.903
  O       -1.664     -18.867      96.198
  C       -0.136     -20.734      95.915
  O       -0.580     -22.040      95.547
  C       -0.010     -19.740      94.772
  O        0.392     -20.321      93.546
  C       -1.382     -19.060      94.798
  N       -1.401     -17.807      94.049
  C       -1.517     -17.897      92.665
  O       -1.614     -18.951      92.043
  N       -1.457     -16.715      91.981
  C       -1.181     -15.493      92.516
  O       -1.043     -14.489      91.831
  C       -1.029     -15.465      93.979
  C       -1.166     -16.598      94.672
  O        0.983     -17.367      99.838
  O        2.463     -19.490      99.657
  H        0.167     -19.698      92.831
  H        2.924     -20.107      99.063
  H       -1.539     -16.766      90.977
  H       -0.799     -14.511      94.431
  H       -1.059     -16.608      95.751
  H       -2.159     -19.712      94.398
  H        0.763     -19.011      95.047
  H        0.852     -20.905      96.358
  H       -1.868     -20.655      97.250
  H       -0.917     -18.681      98.599
  H       -0.187     -20.261      98.884
  P        0.327     -23.358      95.567
  C        2.654     -24.055      94.637
  O        1.717     -23.019      94.851
  O       -0.345     -24.600      95.084
  O        0.740     -23.504      97.107
  H        0.880     -24.445      97.320
  H        3.658     -23.622      94.633
  H        2.467     -24.513      93.663
  H        2.597     -24.817      95.419
  H        4.805     -17.593      97.227
  H        3.681     -18.880      96.864
  H        4.539     -18.873      98.386

 3  4  5  6  7  8  9  10  11  12  13  23  28  29  30  31  32 0
 6-311+G(2d,p)
 ****
 33  34 0
 6-311+G(2d,p)
 ****
 1  2  14  15  16  17  18  19  20  21  22  24  25  26  27 0
 3-21G
 ****
 35  36  37  38  39  40  41  42  43  44  45 0
 3-21G
 ****


