%nproc=1
%NoSave
%Mem=1900MB
#P OB98/GEN NMR

erre ene a

0 1
  C        5.479    -685.000     186.917
  O        6.760    -684.950     187.509
  H        5.259    -684.057     186.416
  H        5.466    -685.805     186.173
  H        4.719    -685.211     187.675
  P        6.983    -683.815     188.625
  C        8.696    -685.312     189.865
  O        8.449    -684.056     189.251
  C        9.991    -685.265     190.657
  O       11.085    -684.989     189.737
  C       10.023    -684.188     191.760
  O       10.444    -684.744     193.007
  C       11.076    -683.198     191.285
  O       11.807    -682.612     192.357
  C       11.957    -684.056     190.386
  N       16.415    -681.779     189.400
  C       16.088    -682.782     190.235
  N       14.907    -683.420     190.384
  C       14.011    -682.919     189.522
  C       14.179    -681.912     188.592
  C       15.456    -681.310     188.564
  N       15.756    -680.240     187.757
  N       13.011    -681.664     187.889
  C       12.130    -682.483     188.418
  N       12.673    -683.258     189.414
  O        5.988    -684.258     189.803
  O        6.700    -682.428     188.161
  H       12.478    -683.263     192.641
  H        5.333    -683.551     189.941
  H       16.892    -683.136     190.883
  H       11.081    -682.536     188.148
  H       12.688    -684.634     190.966
  H       10.584    -682.395     190.714
  H        9.044    -683.698     191.891
  H       10.184    -686.252     191.090
  H        8.773    -686.088     189.089
  H       16.662    -679.795     187.882
  H       15.026    -679.809     187.214
  H        7.853    -685.560     190.521
  P        9.363    -684.732     194.198
  C        9.861    -687.154     194.993
  O        9.847    -685.766     195.325
  O        8.086    -685.438     193.537
  O        9.029    -683.361     194.690
  H        7.310    -684.848     193.595
  H       10.203    -687.719     195.835
  H       10.518    -687.316     194.164
  H        8.872    -687.468     194.731

 6  7  8  9  10  11  12  13  14  15  25  28  32  33  34  35 0
 6-311+G(2d,p)
 ****
 36  39  40 0
 6-311+G(2d,p)
 ****
 1  2  3  4  5  16  17  18  19  20  21  22  23  24 0
 3-21G
 ****
 26  27  29  30  31  37  38  41  42  43  44  45  46  47  48 0
 3-21G
 ****


