%nproc=1
%NoSave
%Mem=1900MB
#P OB98/GEN NMR

erre ene a

0 1
  C      190.382     -77.754     133.682
  O      191.393     -76.769     133.776
  P      192.123     -76.249     132.447
  C      194.235     -76.168     133.931
  O      193.490     -75.534     132.887
  C      195.026     -75.136     134.722
  O      196.082     -74.572     133.913
  C      194.192     -73.946     135.192
  O      193.387     -74.304     136.300
  C      195.274     -72.918     135.497
  O      195.852     -73.153     136.790
  C      196.309     -73.213     134.388
  N      198.270     -68.951     132.407
  C      198.440     -69.547     133.608
  N      197.850     -70.666     134.074
  C      196.985     -71.154     133.169
  C      196.677     -70.637     131.918
  C      197.379     -69.486     131.524
  N      197.263     -68.895     130.282
  N      195.710     -71.416     131.298
  C      195.442     -72.371     132.156
  N      196.234     -72.294     133.279
  O      191.268     -75.466     131.511
  O      192.634     -77.597     131.745
  H      196.642     -72.585     136.871
  H      192.226     -77.678     130.856
  H      199.160     -69.073     134.263
  H      194.696     -73.142     132.018
  H      197.335     -73.190     134.770
  H      194.903     -71.897     135.478
  H      193.566     -73.579     134.372
  H      195.492     -75.646     135.576
  H      194.926     -76.882     133.454
  H      197.922     -68.172     130.055
  H      196.857     -69.449     129.536
  H      193.547     -76.711     134.583
  P      191.913     -73.701     136.450
  C      192.610     -71.826     138.069
  O      191.841     -72.998     137.900
  O      190.796     -74.639     136.146
  O      191.923     -72.444     135.450
  H      191.021     -72.325     135.087
  H      193.661     -72.102     138.214
  H      192.260     -71.292     138.941
  H      192.531     -71.173     137.193
  H      190.010     -77.978     134.660
  H      190.788     -78.641     133.243
  H      189.583     -77.388     133.072

 3  4  5  6  7  8  9  10  11  12  22  25  29  30  31  32 0
 6-311+G(2d,p)
 ****
 33  36  37 0
 6-311+G(2d,p)
 ****
 1  2  13  14  15  16  17  18  19  20  21  23  24  26 0
 3-21G
 ****
 27  28  34  35  38  39  40  41  42  43  44  45  46  47  48 0
 3-21G
 ****


