%nproc=1
%NoSave
%Mem=1900MB
#P OB98/GEN NMR

erre ene a

0 1
  C       25.066    -896.310     931.270
  O       25.935    -897.090     932.051
  P       25.981    -896.880     933.664
  C       28.415    -897.740     933.873
  O       27.517    -896.640     934.073
  C       29.867    -897.320     934.072
  O       30.240    -896.290     933.104
  C       30.127    -896.690     935.442
  O       30.155    -897.680     936.454
  C       31.492    -896.030     935.174
  O       32.576    -896.980     935.233
  C       31.313    -895.517     933.719
  N       31.038    -894.100     933.641
  C       32.114    -893.258     933.891
  O       33.204    -893.729     934.235
  N       31.953    -891.874     933.764
  C       30.738    -891.412     933.519
  N       30.623    -890.058     933.342
  C       29.527    -892.253     933.429
  C       29.742    -893.592     933.478
  O       25.270    -897.900     934.492
  O       25.330    -895.417     933.870
  H       24.648    -895.481     934.570
  H       32.731    -897.150     936.202
  H       28.552    -891.801     933.324
  H       28.952    -894.282     933.413
  H       32.224    -895.733     933.129
  H       31.705    -895.232     935.883
  H       29.398    -895.940     935.679
  H       30.516    -898.210     933.889
  H       31.472    -889.503     933.426
  H       28.287    -898.130     932.860
  H       29.822    -889.638     932.853
  H       28.156    -898.580     934.566
  P       29.351    -897.340     937.802
  C       30.431    -899.390     938.954
  O       30.119    -898.000     939.023
  O       28.008    -898.220     937.664
  O       29.012    -895.868     937.974
  H       27.229    -897.740     938.002
  H       31.252    -899.620     939.652
  H       30.779    -899.650     937.928
  H       29.563    -900.000     939.204
  H       25.170    -896.583     930.241
  H       25.309    -895.275     931.391
  H       24.057    -896.478     931.583

 3  4  5  6  7  8  9  10  11  12  13  24  27  28  29  30  32 0
 6-311+G(2d,p)
 ****
 34  35 0
 6-311+G(2d,p)
 ****
 1  2  14  15  16  17  18  19  20  21  22  23  25  26 0
 3-21G
 ****
 31  33  36  37  38  39  40  41  42  43  44  45  46 0
 3-21G
 ****


