%nproc=1
%NoSave
%Mem=1900MB
#P OB98/GEN NMR

erre ene a

0 1
  C     -222.250     240.999     172.134
  O     -222.618     241.612     173.359
  P     -224.092     241.424     173.963
  C     -224.842     243.779     173.237
  O     -225.061     242.374     173.107
  C     -226.069     244.463     173.828
  O     -225.758     245.854     174.083
  C     -227.283     244.432     172.900
  O     -228.465     244.287     173.687
  C     -227.305     245.810     172.264
  O     -228.629     246.179     171.855
  C     -226.711     246.672     173.385
  N     -227.193     251.622     172.089
  C     -228.085     250.738     172.591
  N     -227.895     249.430     172.892
  C     -226.618     249.076     172.667
  C     -225.599     249.871     172.153
  C     -225.926     251.204     171.853
  N     -225.019     252.113     171.346
  N     -224.424     249.148     172.034
  C     -224.724     247.947     172.479
  N     -226.034     247.854     172.885
  O     -224.197     241.597     175.438
  O     -224.526     239.955     173.498
  H     -228.571     247.066     171.436
  H     -225.031     239.515     174.207
  H     -229.081     251.117     172.777
  H     -224.044     247.106     172.531
  H     -227.479     246.989     174.100
  H     -226.663     245.817     171.372
  H     -227.231     243.635     172.155
  H     -226.304     243.994     174.789
  H     -224.641     244.188     172.244
  H     -225.316     253.072     171.281
  H     -224.036     251.849     171.343
  H     -223.964     243.955     173.869
  P     -229.464     243.096     173.258
  C     -230.899     244.641     171.721
  O     -230.028     243.534     171.821
  O     -230.465     242.793     174.315
  O     -228.420     241.916     172.960
  H     -227.535     242.269     172.727
  H     -231.196     244.759     170.675
  H     -230.388     245.556     172.044
  H     -231.790     244.476     172.328
  H     -221.234     241.243     171.904
  H     -222.888     241.354     171.352
  H     -222.351     239.937     172.222

 3  4  5  6  7  8  9  10  11  12  22  25  29  30  31  32 0
 6-311+G(2d,p)
 ****
 33  36  37 0
 6-311+G(2d,p)
 ****
 1  2  13  14  15  16  17  18  19  20  21  23  24  26 0
 3-21G
 ****
 27  28  34  35  38  39  40  41  42  43  44  45  46  47  48 0
 3-21G
 ****


