%nproc=1
%NoSave
%Mem=1900MB
#P OB98/GEN NMR

erre ene a

0 1
  C      367.932     470.579      73.065
  O      368.206     470.734      71.688
  H      368.326     469.615      73.397
  H      366.851     470.588      73.225
  H      368.403     471.374      73.648
  P      367.994     472.192      71.059
  C      366.369     471.285      69.257
  O      367.573     471.988      69.523
  C      366.309     470.868      67.788
  O      366.407     472.056      66.961
  C      367.435     469.915      67.368
  O      366.906     468.950      66.452
  C      368.415     470.820      66.648
  O      369.223     470.118      65.705
  C      367.475     471.843      66.020
  N      368.009     475.498      62.591
  C      367.149     474.419      62.617
  N      366.308     474.286      61.569
  N      367.116     473.543      63.590
  C      367.986     473.823      64.588
  C      368.891     474.854      64.678
  C      368.938     475.799      63.583
  O      369.690     476.763      63.493
  N      369.623     474.774      65.835
  C      369.162     473.695      66.443
  N      368.163     473.087      65.729
  O      369.484     472.769      70.967
  O      367.106     473.103      71.841
  H      368.646     469.869      64.951
  H      369.577     473.540      71.556
  H      368.004     476.135      61.814
  H      369.519     473.310      67.390
  H      367.037     471.486      65.077
  H      369.082     471.298      67.375
  H      366.247     474.947      60.812
  H      367.895     469.399      68.213
  H      365.644     473.518      61.582
  H      365.325     470.425      67.592
  H      365.520     471.937      69.484
  H      366.317     470.398      69.899
  P      366.701     467.456      67.008
  C      369.058     466.603      66.362
  O      367.658     466.472      66.172
  O      365.232     467.079      66.496
  O      366.806     467.343      68.492
  H      364.610     467.068      67.245
  H      369.569     465.891      65.748
  H      369.297     466.424      67.390
  H      369.364     467.592      66.092

 6  7  8  9  10  11  12  13  14  15  26  29  33  34 0
 6-311+G(2d,p)
 ****
 36  38  39  40  41 0
 6-311+G(2d,p)
 ****
 1  2  3  4  5  16  17  18  19  20  21  22  23  24  25 0
 3-21G
 ****
 27  28  30  31  32  35  37  42  43  44  45  46  47 0
 3-21G
 ****
 48  49 0
 3-21G
 ****


