%nproc=1
%NoSave
%Mem=1900MB
#P OB98/GEN NMR

erre ene a

0 1
  C     -202.050     107.027     -52.372
  O     -202.526     108.075     -53.193
  P     -203.119     107.756     -54.646
  C     -205.397     107.586     -53.470
  O     -204.539     107.036     -54.463
  C     -206.610     108.248     -54.119
  O     -206.209     109.383     -54.920
  C     -207.373     107.343     -55.073
  O     -208.122     106.357     -54.386
  C     -208.204     108.363     -55.840
  O     -209.365     108.746     -55.089
  C     -207.218     109.547     -55.946
  N     -206.620     109.656     -57.267
  C     -207.296     110.471     -58.182
  O     -208.374     110.983     -57.884
  N     -206.732     110.674     -59.417
  C     -205.662     110.024     -59.752
  N     -205.117     110.311     -60.964
  C     -205.012     109.032     -58.871
  C     -205.526     108.916     -57.648
  O     -202.181     107.065     -55.578
  O     -203.527     109.195     -55.221
  H     -203.149     109.295     -56.116
  H     -209.718     109.552     -55.515
  H     -204.161     108.467     -59.223
  H     -205.099     108.229     -56.926
  H     -207.730     110.488     -55.711
  H     -208.553     107.977     -56.803
  H     -206.671     106.854     -55.759
  H     -207.270     108.607     -53.319
  H     -205.579     111.009     -61.532
  H     -204.835     108.328     -52.896
  H     -204.142     110.119     -61.182
  H     -205.712     106.790     -52.787
  P     -208.160     104.892     -55.037
  C     -205.666     104.355     -54.598
  O     -206.685     104.557     -55.557
  O     -209.000     105.108     -56.383
  O     -208.784     103.844     -54.172
  H     -209.555     104.326     -56.553
  H     -204.845     103.810     -55.069
  H     -206.029     103.776     -53.744
  H     -205.294     105.323     -54.252
  H     -201.696     107.431     -51.447
  H     -201.250     106.520     -52.869
  H     -202.844     106.337     -52.178

 3  4  5  6  7  8  9  10  11  12  13  24  27  28  29  30  32 0
 6-311+G(2d,p)
 ****
 34  35 0
 6-311+G(2d,p)
 ****
 1  2  14  15  16  17  18  19  20  21  22  23  25  26 0
 3-21G
 ****
 31  33  36  37  38  39  40  41  42  43  44  45  46 0
 3-21G
 ****


