%nproc=1
%NoSave
%Mem=1900MB
#P OB98/GEN NMR

erre ene a

0 1
  C        3.669    -256.421     -65.074
  O        2.382    -255.848     -64.960
  H        3.606    -257.283     -65.745
  H        4.022    -256.767     -64.097
  H        4.376    -255.703     -65.497
  P        2.202    -254.560     -64.021
  C        2.690    -254.108     -61.514
  O        2.668    -255.065     -62.567
  C        2.527    -254.805     -60.165
  O        3.519    -255.837     -59.981
  C        2.691    -253.894     -58.952
  O        1.595    -253.026     -58.738
  C        2.825    -254.944     -57.859
  O        1.530    -255.502     -57.567
  C        3.737    -255.978     -58.550
  N        5.153    -255.783     -58.231
  C        5.691    -256.618     -57.242
  O        4.992    -257.457     -56.679
  N        7.013    -256.460     -56.885
  C        7.724    -255.532     -57.450
  N        9.022    -255.413     -57.055
  C        7.192    -254.619     -58.482
  C        5.916    -254.801     -58.820
  O        0.862    -253.891     -64.072
  O        3.411    -253.592     -64.428
  H        0.989    -254.784     -57.194
  H        3.339    -252.773     -63.880
  H        7.822    -253.845     -58.901
  H        5.453    -254.164     -59.566
  H        3.450    -257.002     -58.276
  H        3.222    -254.542     -56.928
  H        3.635    -253.334     -59.012
  H        1.543    -255.299     -60.171
  H        9.358    -256.051     -56.346
  H        1.885    -253.391     -61.689
  H        9.630    -254.673     -57.386
  H        3.648    -253.579     -61.518
  P        1.882    -251.695     -57.874
  C        3.059    -251.307     -55.576
  O        2.361    -252.198     -56.425
  O        0.415    -251.112     -57.614
  O        2.797    -250.703     -58.518
  H        0.214    -250.394     -58.249
  H        3.300    -251.803     -54.659
  H        2.445    -250.455     -55.370
  H        3.960    -250.989     -56.057

 6  7  8  9  10  11  12  13  14  15  16  26  30  31  32  33  35 0
 6-311+G(2d,p)
 ****
 37  38 0
 6-311+G(2d,p)
 ****
 1  2  3  4  5  17  18  19  20  21  22  23  24  25 0
 3-21G
 ****
 27  28  29  34  36  39  40  41  42  43  44  45  46 0
 3-21G
 ****


