%nproc=1
%NoSave
%Mem=1900MB
#P OB98/GEN NMR

erre ene a

0 1
  C      -49.633    -364.053    -204.866
  O      -48.933    -364.680    -203.811
  H      -49.015    -363.249    -205.270
  H      -50.568    -363.626    -204.494
  H      -49.845    -364.771    -205.663
  P      -49.615    -365.969    -203.148
  C      -47.511    -367.191    -202.217
  O      -48.662    -366.409    -201.932
  C      -46.424    -366.311    -202.832
  O      -46.291    -365.107    -202.028
  C      -45.048    -366.987    -202.880
  O      -44.376    -366.591    -204.078
  C      -44.333    -366.403    -201.673
  O      -42.918    -366.444    -201.770
  C      -44.903    -364.980    -201.655
  N      -44.772    -364.337    -200.351
  C      -43.511    -364.328    -199.764
  O      -42.486    -364.754    -200.297
  N      -43.452    -363.797    -198.500
  C      -44.504    -363.314    -197.778
  O      -44.390    -362.872    -196.640
  C      -45.812    -363.358    -198.449
  C      -45.885    -363.861    -199.681
  O      -49.369    -367.120    -204.236
  O      -51.053    -365.824    -202.782
  H      -50.114    -367.157    -204.866
  H      -42.547    -366.072    -200.945
  H      -42.544    -363.782    -198.060
  H      -46.670    -362.992    -197.902
  H      -46.837    -363.922    -200.200
  H      -44.413    -364.364    -202.423
  H      -44.627    -366.948    -200.766
  H      -45.108    -368.074    -202.830
  H      -46.746    -365.994    -203.834
  H      -47.780    -367.982    -202.926
  H      -47.148    -367.651    -201.292
  P      -44.685    -367.436    -205.409
  C      -44.864    -365.419    -207.066
  O      -44.130    -366.550    -206.631
  O      -46.273    -367.297    -205.509
  O      -44.171    -368.834    -205.345
  H      -46.606    -366.426    -205.229
  H      -44.351    -364.953    -207.881
  H      -44.958    -364.723    -206.259
  H      -45.837    -365.727    -207.386

 6  7  8  9  10  11  12  13  14  15  16  27  31  32  33  34  35 0
 6-311+G(2d,p)
 ****
 36  37 0
 6-311+G(2d,p)
 ****
 1  2  3  4  5  17  18  19  20  21  22  23  24  25 0
 3-21G
 ****
 26  28  29  30  38  39  40  41  42  43  44  45 0
 3-21G
 ****


