%nproc=1
%NoSave
%Mem=1900MB
#P OB98/GEN NMR

erre ene a

0 1
  C      -23.843     188.443    1417.121
  O      -24.908     188.679    1416.222
  H      -24.049     188.955    1418.055
  H      -22.917     188.832    1416.701
  H      -23.749     187.374    1417.305
  P      -24.742     188.105    1414.728
  C      -27.253     188.796    1414.472
  O      -25.940     188.801    1413.926
  C      -28.178     189.694    1413.659
  O      -28.221     189.269    1412.280
  C      -29.655     189.699    1414.129
  O      -29.858     190.497    1415.277
  C      -30.322     190.296    1412.908
  O      -30.054     191.703    1412.847
  C      -29.566     189.538    1411.756
  N      -30.231     188.296    1411.366
  C      -31.580     188.400    1411.003
  O      -32.155     189.480    1411.047
  N      -32.262     187.253    1410.648
  C      -31.645     186.109    1410.630
  N      -32.378     185.013    1410.271
  C      -30.208     185.950    1410.973
  C      -29.580     187.075    1411.332
  O      -25.245     186.581    1414.865
  O      -23.395     188.263    1414.110
  H      -30.291     192.075    1413.703
  H      -25.326     186.172    1413.957
  H      -29.741     184.969    1410.949
  H      -28.526     187.034    1411.586
  H      -29.434     190.193    1410.878
  H      -31.392     190.157    1412.886
  H      -30.016     188.665    1414.274
  H      -27.763     190.699    1413.669
  H      -33.366     185.162    1410.091
  H      -27.191     189.172    1415.516
  H      -32.021     184.066    1410.367
  H      -27.644     187.767    1414.484
  P      -30.664     189.810    1416.505
  C      -29.685     191.782    1417.878
  O      -30.807     190.923    1417.656
  O      -29.612     188.746    1417.117
  O      -31.945     189.125    1416.115
  H      -30.079     187.939    1417.445
  H      -29.913     192.470    1418.665
  H      -29.468     192.324    1416.982
  H      -28.835     191.194    1418.153

 6  7  8  9  10  11  12  13  14  15  16  26  30  31  32  33  35 0
 6-311+G(2d,p)
 ****
 37  38 0
 6-311+G(2d,p)
 ****
 1  2  3  4  5  17  18  19  20  21  22  23  24  25 0
 3-21G
 ****
 27  28  29  34  36  39  40  41  42  43  44  45  46 0
 3-21G
 ****


