%nproc=1
%NoSave
%Mem=1900MB
#P OB98/GEN NMR

erre ene a

0 1
  C       87.449    -155.709    -150.991
  O       86.969    -156.217    -152.220
  H       87.563    -154.626    -151.079
  H       88.424    -156.144    -150.758
  H       86.744    -155.921    -150.180
  P       86.521    -157.756    -152.302
  C       84.031    -157.158    -151.977
  O       85.149    -157.883    -151.479
  C       83.052    -158.113    -152.659
  O       82.676    -159.175    -151.753
  C       81.745    -157.457    -153.094
  O       81.931    -156.680    -154.265
  C       80.858    -158.683    -153.274
  O       81.111    -159.318    -154.534
  C       81.328    -159.578    -152.098
  N       80.450    -159.509    -150.931
  C       79.235    -160.184    -151.028
  O       78.879    -160.783    -152.045
  N       78.431    -160.133    -149.916
  C       78.684    -159.420    -148.779
  O       77.903    -159.365    -147.830
  C       79.963    -158.695    -148.745
  C       80.774    -158.769    -149.807
  O       87.566    -158.758    -151.937
  O       86.042    -157.927    -153.822
  H       80.927    -158.655    -155.227
  H       86.749    -158.357    -154.343
  H       77.543    -160.607    -149.971
  H       80.193    -158.113    -147.858
  H       81.720    -158.242    -149.798
  H       81.388    -160.625    -152.421
  H       79.794    -158.443    -153.248
  H       81.337    -156.843    -152.277
  H       83.563    -158.568    -153.521
  H       84.388    -156.417    -152.705
  H       83.547    -156.637    -151.142
  P       80.947    -155.463    -154.604
  C       82.529    -153.556    -153.935
  O       81.326    -154.246    -153.618
  O       79.494    -155.812    -154.636
  O       81.452    -154.945    -156.033
  H       80.822    -155.221    -156.728
  H       82.688    -152.772    -153.225
  H       82.452    -153.137    -154.917
  H       83.352    -154.240    -153.902

 6  7  8  9  10  11  12  13  14  15  16  26  31  32  33  34  35 0
 6-311+G(2d,p)
 ****
 36  37 0
 6-311+G(2d,p)
 ****
 1  2  3  4  5  17  18  19  20  21  22  23  24  25 0
 3-21G
 ****
 27  28  29  30  38  39  40  41  42  43  44  45 0
 3-21G
 ****


