%nproc=1
%NoSave
%Mem=1900MB
#P OB98/GEN NMR

erre ene a

0 1
  C      504.592    2496.190     482.241
  O      504.554    2496.935     481.029
  H      504.181    2495.199     482.044
  H      503.994    2496.664     483.006
  H      505.627    2496.082     482.579
  P      504.924    2498.503     481.059
  C      507.361    2498.136     480.388
  O      506.496    2498.551     481.428
  C      508.838    2498.229     480.786
  O      509.142    2499.597     481.180
  C      509.201    2497.324     481.996
  O      510.419    2496.646     481.705
  C      509.421    2498.306     483.150
  O      510.257    2497.774     484.155
  C      509.949    2499.531     482.371
  N      509.840    2500.792     483.154
  C      511.079    2501.364     483.535
  O      512.151    2500.823     483.249
  N      511.041    2502.532     484.261
  C      509.915    2503.034     484.641
  N      509.945    2504.154     485.390
  C      508.597    2502.415     484.293
  C      508.657    2501.312     483.554
  O      504.040    2499.329     481.958
  O      504.878    2498.941     479.526
  H      511.053    2497.387     483.717
  H      504.800    2499.931     479.465
  H      507.684    2502.866     484.641
  H      507.743    2500.807     483.257
  H      510.985    2499.394     482.099
  H      508.451    2498.558     483.622
  H      508.419    2496.578     482.243
  H      509.467    2498.015     479.928
  H      510.884    2504.560     485.576
  H      507.181    2498.768     479.501
  H      509.130    2504.659     485.708
  H      507.148    2497.087     480.145
  P      510.460    2495.065     482.110
  C      511.447    2494.299     479.828
  O      510.351    2494.217     480.771
  O      509.025    2494.864     482.811
  O      511.592    2494.702     483.023
  H      509.125    2494.861     483.773
  H      511.236    2493.680     478.981
  H      512.348    2493.964     480.298
  H      511.567    2495.313     479.508

 6  7  8  9  10  11  12  13  14  15  16  26  30  31  32  33  35 0
 6-311+G(2d,p)
 ****
 37  38 0
 6-311+G(2d,p)
 ****
 1  2  3  4  5  17  18  19  20  21  22  23  24  25 0
 3-21G
 ****
 27  28  29  34  36  39  40  41  42  43  44  45  46 0
 3-21G
 ****


