%nproc=1
%NoSave
%Mem=1900MB
#P OB98/GEN NMR

erre ene a

0 1
  C     -169.780    -373.621      58.177
  O     -169.195    -372.942      57.079
  P     -169.798    -373.238      55.619
  C     -171.395    -371.258      55.089
  O     -171.263    -372.582      55.593
  C     -172.576    -371.146      54.123
  O     -172.368    -372.060      53.020
  C     -173.932    -371.465      54.755
  O     -174.899    -370.587      54.178
  C     -174.214    -372.880      54.289
  O     -175.610    -373.167      54.287
  C     -173.549    -372.879      52.903
  N     -173.224    -374.225      52.446
  C     -174.298    -375.091      52.214
  O     -175.446    -374.729      52.472
  N     -174.041    -376.354      51.748
  C     -172.814    -376.757      51.628
  N     -172.611    -378.017      51.159
  C     -171.653    -375.917      51.978
  C     -171.927    -374.670      52.356
  O     -170.097    -374.807      55.666
  O     -168.898    -372.865      54.487
  H     -175.740    -374.044      53.860
  H     -169.982    -375.210      54.785
  H     -170.651    -376.313      51.895
  H     -171.138    -373.976      52.610
  H     -174.207    -372.408      52.161
  H     -173.714    -373.597      54.952
  H     -173.932    -371.353      55.842
  H     -172.581    -370.131      53.706
  H     -173.423    -378.578      50.938
  H     -170.484    -370.991      54.548
  H     -171.690    -378.415      51.034
  H     -171.512    -370.562      55.925
  P     -176.041    -370.003      55.141
  C     -174.708    -367.810      55.109
  O     -175.346    -368.781      55.913
  O     -176.089    -371.121      56.291
  O     -177.396    -369.760      54.568
  H     -176.803    -370.912      56.921
  H     -174.402    -366.975      55.745
  H     -175.391    -367.438      54.342
  H     -173.816    -368.240      54.642
  H     -169.285    -373.332      59.080
  H     -169.680    -374.677      58.038
  H     -170.817    -373.367      58.242

 3  4  5  6  7  8  9  10  11  12  13  21  23  27  28  29  30  32 0
 6-311+G(2d,p)
 ****
 34  35 0
 6-311+G(2d,p)
 ****
 1  2  14  15  16  17  18  19  20  22  24  25  26 0
 3-21G
 ****
 31  33  36  37  38  39  40  41  42  43  44  45  46 0
 3-21G
 ****


