%nproc=1
%NoSave
%Mem=1900MB
#P OB98/GEN NMR

erre ene a

0 1
  C     -140.299    -957.530     220.197
  O     -141.692    -957.697     219.953
  P     -142.714    -957.975     221.166
  C     -143.933    -955.709     220.887
  O     -143.103    -956.528     221.721
  C     -145.339    -955.649     221.472
  O     -145.306    -954.997     222.754
  C     -146.329    -954.857     220.630
  O     -146.755    -955.603     219.501
  C     -147.412    -954.552     221.658
  O     -148.264    -955.714     221.835
  C     -146.576    -954.331     222.935
  N     -146.383    -952.909     223.236
  C     -147.461    -952.238     223.819
  O     -148.515    -952.815     224.061
  N     -147.308    -950.899     224.137
  C     -146.184    -950.291     223.887
  N     -146.072    -948.998     224.276
  C     -145.046    -950.960     223.222
  C     -145.200    -952.248     222.934
  O     -142.191    -958.923     222.206
  O     -144.063    -958.464     220.454
  H     -148.730    -955.579     222.691
  H     -144.094    -959.439     220.301
  H     -144.135    -950.400     223.031
  H     -144.404    -952.808     222.476
  H     -147.060    -954.796     223.799
  H     -148.050    -953.712     221.389
  H     -145.877    -953.917     220.280
  H     -145.705    -956.679     221.614
  H     -146.813    -948.646     224.888
  H     -143.970    -956.176     219.891
  H     -145.170    -948.554     224.381
  H     -143.494    -954.722     220.804
  P     -147.975    -955.008     218.635
  C     -146.380    -953.946     216.903
  O     -147.392    -953.732     217.848
  O     -148.946    -954.397     219.740
  O     -148.671    -956.021     217.766
  H     -149.701    -955.002     219.919
  H     -146.259    -953.037     216.291
  H     -146.633    -954.779     216.224
  H     -145.423    -954.168     217.399
  H     -139.793    -957.356     219.270
  H     -139.909    -958.414     220.656
  H     -140.149    -956.694     220.848

 3  4  5  6  7  8  9  10  11  12  13  23  27  28  29  30  32 0
 6-311+G(2d,p)
 ****
 34  35 0
 6-311+G(2d,p)
 ****
 1  2  14  15  16  17  18  19  20  21  22  24  25  26 0
 3-21G
 ****
 31  33  36  37  38  39  40  41  42  43  44  45  46 0
 3-21G
 ****


