%nproc=1
%NoSave
%Mem=1900MB
#P OB98/GEN NMR

erre ene a

0 1
  C       -5.332      36.340      35.693
  O       -6.130      35.656      34.749
  H       -5.042      35.637      36.478
  H       -5.893      37.160      36.147
  H       -4.425      36.725      35.218
  P       -6.746      36.480      33.521
  C       -4.722      36.527      31.920
  O       -6.000      35.964      32.197
  C       -4.307      36.208      30.479
  O       -2.988      36.769      30.266
  C       -4.237      34.698      30.208
  O       -4.996      34.298      29.069
  C       -2.741      34.413      30.194
  O       -2.360      33.289      29.428
  C       -2.140      35.742      29.722
  N       -0.753      35.945      30.137
  C        0.231      35.801      29.164
  O        0.025      35.540      27.981
  N        1.520      35.981      29.597
  C        1.908      36.275      30.869
  O        3.078      36.431      31.195
  C        0.824      36.392      31.856
  C       -0.437      36.223      31.451
  O       -6.771      37.962      33.685
  O       -8.223      35.883      33.357
  H       -1.427      33.086      29.642
  H       -8.870      36.503      33.742
  H        2.240      35.890      28.898
  H        1.096      36.615      32.878
  H       -1.262      36.305      32.153
  H       -2.174      35.813      28.635
  H       -2.419      34.222      31.225
  H       -4.697      34.133      31.027
  H       -4.996      36.712      29.793
  H       -4.005      36.098      32.625
  H       -4.759      37.612      32.063
  P       -6.305      33.387      29.124
  C       -8.181      35.132      29.678
  O       -7.559      34.292      28.717
  O       -6.450      32.539      30.341
  O       -6.122      32.400      27.860
  H       -6.538      31.550      28.109
  H       -8.995      35.655      29.221
  H       -7.468      35.838      30.050
  H       -8.549      34.537      30.487

 6  7  8  9  10  11  12  13  14  15  16  26  31  32  33  34  35 0
 6-311+G(2d,p)
 ****
 36  37 0
 6-311+G(2d,p)
 ****
 1  2  3  4  5  17  18  19  20  21  22  23  24  25 0
 3-21G
 ****
 27  28  29  30  38  39  40  41  42  43  44  45 0
 3-21G
 ****


