%nproc=1
%NoSave
%Mem=1900MB
#P OB98/GEN NMR

erre ene a

0 1
  C     -501.259     998.067     200.952
  O     -500.276     997.744     199.990
  H     -501.376     997.222     201.636
  H     -502.216     998.260     200.463
  H     -500.951     998.946     201.524
  P     -499.951     998.855     198.880
  C     -497.362     998.843     199.056
  O     -498.500     998.486     198.287
  C     -496.995     997.726     200.030
  O     -496.560     996.566     199.266
  C     -495.867     998.094     201.006
  O     -496.156     997.503     202.279
  C     -494.653     997.408     200.403
  O     -493.641     997.167     201.371
  C     -495.297     996.151     199.832
  N     -491.210     993.268     199.220
  C     -491.844     993.698     200.375
  N     -491.298     993.316     201.557
  N     -492.907     994.455     200.374
  C     -493.362     994.748     199.132
  C     -492.826     994.386     197.916
  C     -491.632     993.568     197.930
  O     -491.018     993.171     196.949
  N     -493.562     994.913     196.879
  C     -494.534     995.581     197.473
  N     -494.457     995.512     198.833
  O     -499.672    1000.177     199.745
  O     -501.014     999.069     197.853
  H     -492.808     996.970     200.892
  H     -499.921    1000.972     199.246
  H     -490.391     992.701     199.283
  H     -495.311     996.136     196.958
  H     -495.501     995.395     200.602
  H     -494.230     998.025     199.603
  H     -490.497     992.704     201.625
  H     -495.724     999.170     201.122
  H     -491.753     993.613     202.406
  H     -497.903     997.419     200.566
  H     -497.586     999.758     199.619
  H     -496.522     999.043     198.381
  P     -496.831     998.434     203.393
  C     -498.103     996.472     204.520
  O     -497.172     997.539     204.680
  O     -498.273     998.752     202.766
  O     -496.079     999.694     203.671
  H     -498.304     999.676     202.471
  H     -498.231     995.967     205.455
  H     -497.733     995.783     203.790
  H     -499.044     996.865     204.195

 6  7  8  9  10  11  12  13  14  15  26  29  33  34 0
 6-311+G(2d,p)
 ****
 36  38  39  40  41 0
 6-311+G(2d,p)
 ****
 1  2  3  4  5  16  17  18  19  20  21  22  23  24  25 0
 3-21G
 ****
 27  28  30  31  32  35  37  42  43  44  45  46  47 0
 3-21G
 ****
 48  49 0
 3-21G
 ****


