%nproc=1
%NoSave
%Mem=1900MB
#P OB98/GEN NMR

erre ene a

0 1
  C     -294.107    -124.917     235.551
  O     -293.347    -125.950     234.952
  H     -294.199    -124.092     234.839
  H     -293.601    -124.551     236.450
  H     -295.107    -125.282     235.803
  P     -293.116    -127.272     235.835
  C     -295.222    -128.325     234.759
  O     -294.577    -127.925     235.959
  C     -295.003    -129.819     234.505
  O     -295.372    -130.585     235.665
  C     -295.821    -130.386     233.354
  O     -295.208    -130.102     232.104
  C     -295.775    -131.872     233.680
  O     -294.515    -132.425     233.253
  C     -295.857    -131.881     235.218
  N     -299.778    -135.174     235.643
  C     -298.663    -135.199     234.882
  N     -297.687    -134.271     234.786
  C     -297.944    -133.224     235.591
  C     -299.040    -133.057     236.423
  C     -299.986    -134.100     236.442
  N     -301.120    -134.071     237.228
  N     -298.967    -131.853     237.097
  C     -297.816    -131.326     236.715
  N     -297.179    -132.103     235.779
  O     -292.368    -127.078     237.109
  O     -292.404    -128.232     234.768
  H     -294.562    -133.394     233.373
  H     -292.802    -128.118     233.886
  H     -298.533    -136.085     234.267
  H     -297.400    -130.404     237.098
  H     -295.204    -132.646     235.654
  H     -296.560    -132.437     233.167
  H     -296.864    -130.042     233.393
  H     -293.929    -129.977     234.339
  H     -294.843    -127.745     233.911
  H     -301.822    -134.773     237.053
  H     -301.332    -133.218     237.723
  H     -296.292    -128.115     234.871
  P     -296.069    -130.097     230.751
  C     -297.039    -127.779     231.304
  O     -297.336    -129.141     231.017
  O     -296.409    -131.446     230.218
  O     -295.189    -129.252     229.722
  H     -295.248    -129.643     228.828
  H     -297.950    -127.241     231.462
  H     -296.509    -127.348     230.480
  H     -296.434    -127.724     232.185

 6  7  8  9  10  11  12  13  14  15  25  28  32  33  34  35 0
 6-311+G(2d,p)
 ****
 36  39  40 0
 6-311+G(2d,p)
 ****
 1  2  3  4  5  16  17  18  19  20  21  22  23  24 0
 3-21G
 ****
 26  27  29  30  31  37  38  41  42  43  44  45  46  47 0
 3-21G
 ****
 48 0
 3-21G
 ****


