%nproc=1
%NoSave
%Mem=1900MB
#P OB98/GEN NMR

erre ene a

0 1
  C     -897.080     825.365    1049.982
  O     -897.150     825.179    1048.583
  P     -898.390     825.806    1047.780
  C     -896.890     827.863    1047.053
  O     -897.760     826.807    1046.682
  C     -895.640     827.826    1046.193
  O     -894.950     826.538    1046.346
  C     -895.850     827.981    1044.702
  O     -896.110     829.344    1044.342
  C     -894.540     827.423    1044.113
  O     -893.500     828.410    1044.204
  C     -894.270     826.261    1045.102
  N     -894.650     824.948    1044.540
  C     -894.120     824.602    1043.335
  O     -893.370     825.341    1042.671
  N     -894.500     823.364    1042.836
  C     -895.380     822.515    1043.373
  O     -895.720     821.433    1042.889
  C     -895.930     822.915    1044.701
  C     -895.570     824.108    1045.244
  O     -899.020     826.792    1048.894
  O     -899.340     824.779    1047.254
  H     -898.330     827.089    1049.533
  H     -892.690     827.996    1043.859
  H     -894.130     823.093    1041.956
  H     -896.630     822.252    1045.188
  H     -895.970     824.444    1046.192
  H     -893.190     826.211    1045.322
  H     -894.640     827.112    1043.077
  H     -896.730     827.364    1044.367
  H     -894.950     828.618    1046.580
  H     -896.620     827.747    1048.120
  H     -897.410     828.810    1046.910
  P     -896.810     829.628    1042.896
  C     -899.180     829.151    1043.944
  O     -898.320     830.018    1043.227
  O     -896.930     828.117    1042.339
  O     -896.060     830.596    1042.052
  H     -897.190     827.489    1043.014
  H     -900.000     829.728    1044.392
  H     -898.650     828.683    1044.788
  H     -899.570     828.382    1043.280
  H     -896.200     824.889    1050.362
  H     -897.945     824.935    1050.443
  H     -897.042     826.412    1050.201

 3  4  5  6  7  8  9  10  11  12  13  24  28  29  30  31  32 0
 6-311+G(2d,p)
 ****
 33  34 0
 6-311+G(2d,p)
 ****
 1  2  14  15  16  17  18  19  20  21  22  23  25  26  27 0
 3-21G
 ****
 35  36  37  38  39  40  41  42  43  44  45 0
 3-21G
 ****


