%nproc=1
%NoSave
%Mem=1900MB
#P OB98/GEN NMR

erre ene a

0 1
  C      114.480    -366.509     449.458
  O      114.188    -367.870     449.203
  H      114.811    -366.410     450.495
  H      113.583    -365.898     449.313
  H      115.279    -366.162     448.796
  P      113.694    -368.227     447.717
  C      111.381    -368.677     448.831
  O      112.361    -369.099     447.891
  C      110.132    -369.558     448.725
  O      109.522    -369.343     447.411
  C      110.409    -371.066     448.841
  O      109.240    -371.691     449.390
  C      110.563    -371.466     447.383
  O      110.508    -372.864     447.235
  C      109.437    -370.636     446.774
  N      109.049    -373.051     442.281
  C      108.823    -373.465     443.547
  N      108.938    -372.763     444.690
  C      109.304    -371.493     444.436
  C      109.563    -370.925     443.200
  C      109.423    -371.764     442.082
  N      109.662    -371.346     440.792
  N      109.922    -369.593     443.342
  C      109.879    -369.369     444.638
  N      109.521    -370.487     445.340
  O      114.783    -369.289     447.217
  O      113.573    -367.067     446.787
  H      110.775    -373.128     446.326
  H      115.476    -368.834     446.701
  H      108.514    -374.503     443.653
  H      110.110    -368.423     445.121
  H      108.450    -371.059     447.005
  H      111.538    -371.146     446.993
  H      111.278    -371.296     449.468
  H      109.394    -369.226     449.468
  H      111.121    -367.633     448.621
  H      111.792    -368.751     449.845
  H      109.559    -372.016     440.046
  H      109.958    -370.395     440.627
  P      109.018    -371.670     450.986
  C      109.900    -374.137     451.036
  O      108.956    -373.189     451.510
  O      107.479    -371.222     451.098
  O      109.900    -370.747     451.751
  H      107.343    -370.756     451.949
  H      109.709    -375.088     451.488
  H      110.888    -373.814     451.289
  H      109.815    -374.224     449.973

 6  7  8  9  10  11  12  13  14  15  25  28  32  33  34  35 0
 6-311+G(2d,p)
 ****
 36  37  40 0
 6-311+G(2d,p)
 ****
 1  2  3  4  5  16  17  18  19  20  21  22  23  24 0
 3-21G
 ****
 26  27  29  30  31  38  39 41  42  43  44  45  46  47  48 0
 3-21G
 ****


