%nproc=1
%NoSave
%Mem=1900MB
#P OB98/GEN NMR

erre ene a

0 1
  C      604.160     506.441     310.942
  O      605.262     505.601     310.658
  H      603.385     505.852     311.441
  H      603.750     506.844     310.010
  H      604.464     507.259     311.598
  P      606.593     506.323     310.133
  C      608.116     505.827     308.060
  O      606.807     505.887     308.598
  C      608.234     504.632     307.109
  O      608.141     503.393     307.833
  C      607.118     504.538     306.080
  O      607.223     505.509     305.066
  C      607.317     503.115     305.573
  O      608.314     503.054     304.553
  C      607.794     502.383     306.846
  N      606.794     501.454     307.353
  C      606.811     500.172     306.754
  O      607.645     499.913     305.897
  N      605.861     499.262     307.130
  C      604.947     499.612     307.998
  N      604.013     498.664     308.301
  C      604.903     500.934     308.646
  C      605.849     501.798     308.276
  O      607.741     505.518     310.905
  O      606.628     507.803     310.348
  H      608.389     502.117     304.287
  H      607.660     504.559     310.842
  H      604.135     501.153     309.365
  H      605.874     502.800     308.700
  H      608.716     501.814     306.645
  H      606.400     502.706     305.147
  H      606.142     504.594     306.574
  H      609.219     504.679     306.614
  H      604.062     497.781     307.793
  H      608.857     505.754     308.853
  H      603.213     498.836     308.899
  H      608.301     506.769     307.521
  P      605.971     506.381     304.599
  C      604.004     506.095     302.946
  O      605.163     505.498     303.517
  O      606.271     507.765     304.141
  O      604.992     506.310     305.872
  H      604.722     505.417     306.134
  H      603.560     505.416     302.249
  H      604.280     506.996     302.439
  H      603.301     506.322     303.720

 6  7  8  9  10  11  12  13  14  15  16  26  30  31  32  33  35 0
 6-311+G(2d,p)
 ****
 37  38 0
 6-311+G(2d,p)
 ****
 1  2  3  4  5  17  18  19  20  21  22  23  24  25 0
 3-21G
 ****
 27  28  29  34  36  39  40  41  42  43  44  45  46 0
 3-21G
 ****


