%nproc=1
%NoSave
%Mem=1900MB
#P OB98/GEN NMR

erre ene a

0 1
  C     -142.693     -41.479     223.464
  O     -143.273     -42.653     223.987
  P     -144.798     -42.694     224.484
  C     -145.713     -44.196     222.603
  O     -145.684     -42.886     223.153
  C     -147.065     -44.874     222.851
  O     -148.125     -44.077     222.252
  C     -147.177     -46.296     222.286
  O     -148.016     -47.023     223.185
  C     -147.888     -46.068     220.965
  O     -148.495     -47.246     220.452
  C     -148.854     -44.939     221.348
  N     -149.348     -44.216     220.182
  C     -150.689     -43.823     220.206
  O     -151.414     -44.155     221.149
  N     -151.195     -43.115     219.146
  C     -150.450     -42.913     218.103
  N     -151.001     -42.200     217.084
  C     -149.068     -43.420     217.979
  C     -148.587     -44.043     219.053
  O     -145.212     -41.555     225.352
  O     -144.927     -44.123     225.194
  H     -149.081     -46.993     219.704
  H     -144.512     -44.096     226.096
  H     -148.511     -43.273     217.071
  H     -147.581     -44.448     219.056
  H     -149.716     -45.338     221.899
  H     -147.168     -45.710     220.214
  H     -146.215     -46.796     222.161
  H     -147.241     -44.888     223.932
  H     -151.947     -41.858     217.215
  H     -144.932     -44.786     223.090
  H     -150.485     -41.914     216.266
  H     -145.488     -44.159     221.534
  P     -148.025     -48.627     223.213
  C     -146.010     -48.820     224.779
  O     -146.520     -49.097     223.488
  O     -148.679     -49.275     222.034
  O     -148.778     -49.001     224.579
  H     -149.048     -49.938     224.551
  H     -145.109     -49.421     224.945
  H     -146.746     -49.065     225.550
  H     -145.750     -47.757     224.848
  H     -141.675     -41.673     223.196
  H     -142.726     -40.705     224.202
  H     -143.237     -41.168     222.597

 3  4  5  6  7  8  9  10  11  12  13  23  27  28  29  30  32 0
 6-311+G(2d,p)
 ****
 34  35 0
 6-311+G(2d,p)
 ****
 1  2  14  15  16  17  18  19  20  21  22  24  25  26 0
 3-21G
 ****
 31  33  36  37  38  39  40  41  42  43  44  45  46 0
 3-21G
 ****


