%nproc=1
%NoSave
%Mem=1900MB
#P OB98/GEN NMR

erre ene a

0 1
  C      745.602     173.768    -133.525
  O      745.223     174.232    -132.242
  H      745.311     172.722    -133.649
  H      745.095     174.372    -134.280
  H      746.684     173.870    -133.654
  P      745.831     173.447    -130.981
  C      743.716     173.611    -129.485
  O      745.072     174.004    -129.675
  C      742.922     174.770    -128.874
  O      743.370     174.963    -127.507
  C      743.061     176.104    -129.621
  O      741.775     176.577    -130.035
  C      743.611     177.067    -128.576
  O      743.021     178.365    -128.642
  C      743.293     176.370    -127.256
  N      743.915     179.354    -123.169
  C      742.800     178.878    -123.768
  N      742.699     178.006    -124.786
  C      743.926     177.587    -125.171
  C      745.144     177.954    -124.638
  C      745.116     178.909    -123.599
  N      746.255     179.434    -123.027
  N      746.185     177.332    -125.303
  C      745.593     176.615    -126.248
  N      744.232     176.760    -126.222
  O      747.304     174.063    -130.843
  O      745.859     171.964    -131.111
  H      743.512     178.929    -128.015
  H      747.952     173.335    -130.744
  H      741.858     179.264    -123.379
  H      746.105     176.020    -127.001
  H      742.277     176.602    -126.900
  H      744.696     177.166    -128.722
  H      743.732     176.038    -130.485
  H      741.863     174.470    -128.824
  H      743.676     172.755    -128.800
  H      746.144     180.183    -122.374
  H      747.150     179.179    -123.421
  H      743.292     173.310    -130.444
  P      741.559     176.764    -131.624
  C      740.005     178.854    -131.713
  O      740.116     177.439    -131.835
  O      741.345     175.264    -132.135
  O      742.701     177.437    -132.320
  H      741.616     175.187    -133.071
  H      738.990     179.148    -131.880
  H      740.636     179.325    -132.437
  H      740.306     179.152    -130.730

 6  7  8  9  10  11  12  13  14  15  25  28  32  33  34  35 0
 6-311+G(2d,p)
 ****
 36  39  40 0
 6-311+G(2d,p)
 ****
 1  2  3  4  5  16  17  18  19  20  21  22  23  24 0
 3-21G
 ****
 26  27  29  30  31  37  38  41  42  43  44  45  46  47  48 0
 3-21G
 ****


