%nproc=1
%NoSave
%Mem=1900MB
#P OB98/GEN NMR

erre ene a

0 1
  C       16.176     -97.333      -8.494
  O       15.667     -96.164      -9.145
  P       14.856     -96.413     -10.509
  C       16.506     -95.108     -12.025
  O       15.905     -96.360     -11.725
  C       17.119     -95.102     -13.432
  O       18.244     -96.026     -13.514
  C       16.130     -95.502     -14.537
  O       16.472     -94.740     -15.704
  C       16.479     -96.959     -14.782
  O       15.990     -97.409     -16.046
  C       17.999     -96.896     -14.643
  N       18.258    -101.635     -16.369
  C       17.435    -100.594     -16.752
  N       16.589    -100.837     -17.780
  N       17.438     -99.416     -16.178
  C       18.365     -99.310     -15.191
  C       19.247    -100.261     -14.733
  C       19.208    -101.567     -15.355
  O       19.918    -102.522     -15.059
  N       20.054     -99.762     -13.730
  C       19.603     -98.531     -13.553
  N       18.621     -98.190     -14.445
  O       14.005     -95.067     -10.677
  O       13.980     -97.624     -10.476
  H       16.246     -98.351     -16.143
  H       13.084     -95.214     -10.388
  H       18.197    -102.527     -16.836
  H       19.968     -97.837     -12.809
  H       18.477     -96.457     -15.528
  H       16.041     -97.593     -14.000
  H       16.571    -101.700     -18.301
  H       15.077     -95.354     -14.280
  H       16.003    -100.074     -18.109
  H       17.506     -94.093     -13.632
  H       17.289     -94.885     -11.296
  H       15.755     -94.316     -11.919
  P       15.502     -93.533     -16.122
  C       15.155     -93.996     -18.647
  O       14.608     -94.049     -17.344
  O       16.502     -92.484     -16.806
  O       14.762     -92.904     -14.982
  H       16.241     -91.574     -16.562
  H       14.677     -94.762     -19.261
  H       16.237     -94.176     -18.642
  H       14.957     -93.016     -19.086
  H       16.694     -97.048      -7.603
  H       16.850     -97.842      -9.151
  H       15.364     -97.983      -8.242

 3  4  5  6  7  8  9  10  11  12  23  26  30  31 0
 6-311+G(2d,p)
 ****
 33  35  36  37  38 0
 6-311+G(2d,p)
 ****
 1  2  13  14  15  16  17  18  19  20  21  22  24  25 0
 3-21G
 ****
 27  28  29  32  34  39  40  41  42  43  44  45  46  47  48  49 0
 3-21G
 ****


