%nproc=1
%NoSave
%Mem=1900MB
#P OB98/GEN NMR

erre ene a

0 1
  C      -13.196     -18.222     -26.109
  O      -12.695     -18.802     -27.297
  H      -13.401     -19.017     -25.390
  H      -14.125     -17.684     -26.316
  H      -12.458     -17.538     -25.681
  P      -12.309     -17.794     -28.483
  C      -10.045     -19.071     -28.561
  O      -11.114     -18.488     -29.296
  C       -9.024     -19.666     -29.524
  O       -8.933     -18.844     -30.711
  C       -7.610     -19.726     -28.963
  O       -7.426     -20.812     -28.074
  C       -6.793     -19.842     -30.240
  O       -6.730     -21.197     -30.700
  C       -7.589     -18.981     -31.226
  N       -4.895     -16.078     -34.446
  C       -5.419     -17.317     -34.571
  N       -6.137     -18.017     -33.668
  C       -6.322     -17.297     -32.549
  C       -5.853     -16.023     -32.280
  C       -5.107     -15.401     -33.294
  N       -4.553     -14.150     -33.159
  N       -6.213     -15.632     -31.006
  C       -6.896     -16.648     -30.517
  N       -6.990     -17.674     -31.415
  O      -11.594     -16.587     -27.711
  O      -13.455     -17.323     -29.312
  H       -6.081     -21.651     -30.129
  H      -12.226     -15.851     -27.603
  H       -5.226     -17.815     -35.516
  H       -7.330     -16.691     -29.526
  H       -7.667     -19.448     -32.216
  H       -5.772     -19.497     -30.081
  H       -7.360     -18.778     -28.470
  H       -9.367     -20.664     -29.826
  H      -10.439     -19.864     -27.916
  H       -9.583     -18.300     -27.935
  H       -3.972     -13.794     -33.900
  H       -4.608     -13.685     -32.262
  P       -6.661     -20.525     -26.695
  C       -7.958     -22.394     -25.421
  O       -6.702     -21.878     -25.839
  O       -7.649     -19.545     -25.906
  O       -5.301     -19.934     -26.852
  H       -7.132     -18.898     -25.388
  H       -7.806     -23.295     -24.864
  H       -8.561     -22.603     -26.280
  H       -8.453     -21.673     -24.804

 6  7  8  9  10  11  12  13  14  15  25  28  32  33  34  35 0
 6-311+G(2d,p)
 ****
 36  37  40 0
 6-311+G(2d,p)
 ****
 1  2  3  4  5  16  17  18  19  20  21  22  23  24 0
 3-21G
 ****
 26  27  29  30  31  38  39 41  42  43  44  45  46  47  48 0
 3-21G
 ****


