%nproc=1
%NoSave
%Mem=1900MB
#P OB98/GEN NMR

erre ene a

0 1
  C     -106.794     226.482      55.836
  O     -105.397     226.397      55.632
  H     -107.076     227.535      55.906
  H     -107.068     225.978      56.768
  H     -107.328     226.027      54.997
  P     -104.787     224.920      55.486
  C     -102.866     225.111      57.239
  O     -104.135     224.569      56.910
  C     -102.416     224.617      58.619
  O     -103.168     225.337      59.641
  C     -102.670     223.119      58.858
  O     -101.677     222.644      59.783
  C     -104.030     223.140      59.537
  O     -104.317     221.899      60.137
  C     -103.836     224.345      60.453
  N     -107.365     223.889      64.124
  C     -106.201     223.238      63.910
  N     -105.308     223.424      62.917
  C     -105.702     224.413      62.099
  C     -106.859     225.174      62.196
  C     -107.718     224.876      63.266
  N     -108.907     225.533      63.484
  N     -106.920     226.097      61.169
  C     -105.823     225.899      60.467
  N     -105.062     224.886      60.986
  O     -103.521     225.140      54.532
  O     -105.721     223.889      54.950
  H     -103.785     221.775      60.950
  H     -103.768     224.951      53.606
  H     -105.957     222.461      64.630
  H     -105.535     226.447      59.577
  H     -103.179     224.112      61.299
  H     -104.826     223.327      58.809
  H     -102.631     222.521      57.944
  H     -101.360     224.870      58.764
  H     -102.945     226.204      57.244
  H     -102.132     224.807      56.488
  H     -109.474     225.248      64.266
  H     -109.190     226.260      62.843
  P     -100.337     221.965      59.213
  C     -100.656     219.544      60.155
  O     -100.601     220.393      59.020
  O      -99.381     221.981      60.501
  O      -99.689     222.667      58.065
  H      -98.449     222.018      60.214
  H     -100.839     218.538      59.839
  H     -101.446     219.864      60.802
  H      -99.725     219.590      60.680

 6  7  8  9  10  11  12  13  14  15  25  28  32  33  34  35 0
 6-311+G(2d,p)
 ****
 36  37  40 0
 6-311+G(2d,p)
 ****
 1  2  3  4  5  16  17  18  19  20  21  22  23  24 0
 3-21G
 ****
 26  27  29  30  31  38  39 41  42  43  44  45  46  47  48 0
 3-21G
 ****


