%nproc=1
%NoSave
%Mem=1900MB
#P OB98/GEN NMR

erre ene a

0 1
  C     -300.957     510.157    -192.046
  O     -301.772     509.085    -192.523
  P     -301.689     508.740    -194.086
  C     -300.152     506.677    -193.822
  O     -300.300     507.977    -194.362
  C     -298.880     505.983    -194.339
  O     -299.004     505.693    -195.765
  C     -297.615     506.821    -194.168
  O     -296.520     505.924    -193.925
  C     -297.429     507.459    -195.533
  O     -296.082     507.915    -195.726
  C     -297.878     506.299    -196.431
  N     -296.176     508.700    -200.611
  C     -295.587     508.391    -199.432
  N     -296.122     507.778    -198.350
  C     -297.393     507.428    -198.593
  C     -298.134     507.672    -199.742
  C     -297.487     508.360    -200.777
  N     -298.088     508.693    -201.964
  N     -299.424     507.208    -199.595
  C     -299.452     506.674    -198.389
  N     -298.246     506.755    -197.756
  O     -301.449     510.185    -194.762
  O     -302.904     508.082    -194.636
  H     -295.483     507.149    -195.550
  H     -302.266     510.464    -195.223
  H     -294.546     508.698    -199.340
  H     -300.323     506.239    -197.908
  H     -297.098     505.543    -196.549
  H     -298.100     508.324    -195.639
  H     -297.664     507.570    -193.360
  H     -298.765     505.031    -193.816
  H     -301.022     506.063    -194.068
  H     -297.559     509.210    -202.644
  H     -299.079     508.473    -202.091
  H     -300.138     506.743    -192.728
  P     -295.721     506.110    -192.544
  C     -296.088     503.686    -191.704
  O     -296.370     505.053    -191.515
  O     -296.250     507.527    -192.009
  O     -294.242     506.067    -192.685
  H     -295.556     507.927    -191.426
  H     -295.924     503.218    -190.734
  H     -295.216     503.514    -192.331
  H     -296.964     503.207    -192.169
  H     -301.108     510.279    -190.994
  H     -301.224     511.061    -192.552
  H     -299.928     509.934    -192.235

 3  4  5  6  7  8  9  10  11  12  22  25  29  30  31  32 0
 6-311+G(2d,p)
 ****
 33  36  37 0
 6-311+G(2d,p)
 ****
 1  2  13  14  15  16  17  18  19  20  21  23  24  26 0
 3-21G
 ****
 27  28  34  35  38  39  40  41  42  43  44  45  46  47  48 0
 3-21G
 ****


