%nproc=1
%NoSave
%Mem=1900MB
#P OB98/GEN NMR

erre ene a

0 1
  C      306.942     420.743    -273.372
  O      307.526     422.028    -273.355
  H      307.653     419.995    -273.019
  H      306.074     420.743    -272.706
  H      306.605     420.493    -274.386
  P      308.846     422.232    -274.252
  C      310.155     423.087    -272.172
  O      309.700     423.358    -273.491
  C      311.613     423.518    -272.044
  O      312.462     422.638    -272.808
  C      311.884     424.924    -272.565
  O      311.561     425.928    -271.620
  C      313.388     424.849    -272.797
  O      314.079     424.961    -271.546
  C      313.547     423.435    -273.381
  N      315.558     425.143    -277.762
  C      315.919     425.331    -276.469
  N      315.336     424.829    -275.365
  C      314.295     424.039    -275.687
  C      313.830     423.746    -276.956
  C      314.504     424.343    -278.038
  N      314.129     424.176    -279.354
  N      312.727     422.914    -276.886
  C      312.553     422.699    -275.590
  N      313.459     423.385    -274.830
  O      308.307     423.000    -275.551
  O      309.610     420.994    -274.579
  H      313.715     424.279    -270.948
  H      308.976     422.982    -276.262
  H      316.770     425.983    -276.310
  H      311.785     422.068    -275.167
  H      314.497     422.961    -273.091
  H      313.751     425.652    -273.435
  H      311.385     425.099    -273.524
  H      311.908     423.421    -270.988
  H      310.076     422.008    -271.977
  H      314.583     424.763    -280.032
  H      313.259     423.702    -279.551
  H      309.540     423.628    -271.454
  P      310.933     427.305    -272.184
  C      312.762     428.831    -271.166
  O      311.394     428.459    -271.168
  O      309.374     427.127    -271.868
  O      311.199     427.554    -273.629
  H      308.825     427.581    -272.542
  H      312.920     429.605    -270.444
  H      313.036     429.187    -272.137
  H      313.362     427.981    -270.915

 6  7  8  9  10  11  12  13  14  15  25  28  32  33  34  35 0
 6-311+G(2d,p)
 ****
 36  39  40 0
 6-311+G(2d,p)
 ****
 1  2  3  4  5  16  17  18  19  20  21  22  23  24 0
 3-21G
 ****
 26  27  29  30  31  37  38  41  42  43  44  45  46  47 0
 3-21G
 ****
 48 0
 3-21G
 ****


