%nproc=1
%NoSave
%Mem=1900MB
#P OB98/GEN NMR

erre ene a

0 1
  C       77.495     186.254    -142.929
  O       76.258     186.826    -143.321
  P       76.105     188.413    -143.484
  C       74.302     188.559    -141.657
  O       74.609     188.777    -143.029
  C       73.311     189.606    -141.154
  O       73.954     190.903    -141.168
  C       72.053     189.710    -142.009
  O       70.938     189.986    -141.158
  C       72.295     190.926    -142.887
  O       71.055     191.522    -143.305
  C       73.155     191.796    -141.967
  N       73.995     196.617    -143.518
  C       73.020     196.076    -142.756
  N       72.845     194.783    -142.405
  C       73.844     194.026    -142.881
  C       74.909     194.436    -143.670
  C       74.965     195.801    -143.994
  N       75.968     196.352    -144.763
  N       75.719     193.364    -143.993
  C       75.164     192.334    -143.393
  N       74.035     192.684    -142.700
  O       76.496     188.951    -144.816
  O       77.000     189.024    -142.310
  H       70.519     190.813    -143.716
  H       77.458     189.830    -142.617
  H       72.279     196.775    -142.379
  H       75.529     191.319    -143.437
  H       72.538     192.399    -141.289
  H       72.843     190.625    -143.787
  H       71.861     188.805    -142.596
  H       73.056     189.376    -140.113
  H       75.229     188.636    -141.080
  H       75.992     197.357    -144.841
  H       76.777     195.783    -144.969
  H       73.897     187.550    -141.531
  P       69.765     188.881    -141.155
  C       68.140     190.848    -141.672
  O       68.422     189.714    -140.886
  O       70.064     187.749    -140.229
  O       69.710     188.482    -142.705
  H       70.047     189.208    -143.276
  H       67.210     191.299    -141.314
  H       68.005     190.560    -142.718
  H       68.944     191.583    -141.589
  H       77.395     185.190    -142.877
  H       77.775     186.634    -141.969
  H       78.248     186.507    -143.646

 3  4  5  6  7  8  9  10  11  12  22  25  29  30  31  32 0
 6-311+G(2d,p)
 ****
 33  36  37 0
 6-311+G(2d,p)
 ****
 1  2  13  14  15  16  17  18  19  20  21  23  24  26 0
 3-21G
 ****
 27  28  34  35  38  39  40  41  42  43  44  45  46  47  48 0
 3-21G
 ****


