%nproc=1
%NoSave
%Mem=1900MB
#P OB98/GEN NMR

erre ene a

0 1
  C      232.510    -443.544    -280.161
  O      232.382    -442.238    -279.572
  P      233.021    -440.970    -280.327
  C      231.918    -438.896    -281.481
  O      231.924    -439.802    -280.385
  C      230.493    -438.390    -281.742
  O      229.717    -439.408    -282.422
  C      229.700    -438.061    -280.485
  O      230.090    -436.819    -279.922
  C      228.274    -438.068    -281.021
  O      227.953    -436.808    -281.638
  C      228.333    -439.190    -282.073
  N      227.700    -440.427    -281.619
  C      226.337    -440.555    -281.875
  O      225.666    -439.674    -282.404
  N      225.763    -441.732    -281.472
  C      226.390    -442.741    -280.789
  O      225.814    -443.759    -280.440
  C      227.810    -442.511    -280.475
  C      228.388    -441.380    -280.893
  O      233.055    -441.471    -281.850
  O      234.387    -440.564    -279.870
  H      227.087    -436.921    -282.075
  H      233.781    -441.024    -282.323
  H      224.787    -441.861    -281.676
  H      228.334    -443.273    -279.915
  H      229.434    -441.195    -280.668
  H      227.839    -438.868    -283.001
  H      227.528    -438.236    -280.233
  H      229.808    -438.867    -279.754
  H      230.558    -437.512    -282.400
  H      232.290    -439.407    -282.371
  H      232.582    -438.058    -281.249
  P      230.179    -436.749    -278.322
  C      230.607    -434.778    -276.655
  O      230.306    -435.191    -277.973
  O      231.642    -437.354    -278.070
  O      229.074    -437.491    -277.638
  H      232.261    -437.125    -278.787
  H      231.263    -435.494    -276.151
  H      229.678    -434.670    -276.085
  H      231.114    -433.803    -276.700
  H      232.032    -444.267    -279.533
  H      233.547    -443.789    -280.263
  H      232.047    -443.547    -281.125

 3  4  5  6  7  8  9  10  11  12  13  23  28  29  30  31  32 0
 6-311+G(2d,p)
 ****
 33  34 0
 6-311+G(2d,p)
 ****
 1  2  14  15  16  17  18  19  20  21  22  24  25  26 0
 3-21G
 ****
 27  35  36  37  38  39  40  41  42  43  44  45 0
 3-21G
 ****


