%nproc=1
%NoSave
%Mem=1900MB
#P OB98/GEN NMR

erre ene a

0 1
  C      131.405    -237.602    -296.368
  O      130.172    -237.079    -295.846
  P      128.772    -237.636    -296.416
  C      126.675    -238.733    -295.290
  O      127.752    -237.808    -295.189
  C      125.929    -238.832    -293.958
  O      126.740    -239.530    -292.981
  C      125.605    -237.491    -293.311
  O      124.504    -236.855    -293.937
  C      125.333    -237.907    -291.876
  O      123.986    -238.386    -291.724
  C      126.347    -239.055    -291.679
  N      127.504    -238.661    -290.877
  C      127.487    -239.031    -289.541
  O      126.541    -239.606    -289.006
  N      128.598    -238.685    -288.807
  C      129.671    -237.954    -289.267
  O      130.619    -237.663    -288.561
  C      129.586    -237.522    -290.676
  C      128.524    -237.887    -291.403
  O      129.139    -239.156    -296.766
  O      128.240    -236.929    -297.620
  H      123.942    -239.238    -292.211
  H      128.565    -239.468    -297.484
  H      128.623    -238.966    -287.850
  H      130.397    -236.925    -291.067
  H      128.455    -237.573    -292.442
  H      125.859    -239.910    -291.180
  H      125.460    -237.077    -291.161
  H      126.483    -236.844    -293.340
  H      125.015    -239.416    -294.127
  H      127.074    -239.718    -295.561
  H      125.995    -238.394    -296.082
  P      124.842    -235.634    -294.922
  C      123.291    -233.941    -296.179
  O      123.455    -234.844    -295.106
  O      125.061    -236.407    -296.307
  O      126.005    -234.813    -294.468
  H      124.490    -237.196    -296.383
  H      123.845    -234.254    -297.058
  H      123.639    -232.941    -295.862
  H      122.217    -233.877    -296.425
  H      132.229    -237.124    -295.881
  H      131.455    -237.415    -297.420
  H      131.448    -238.656    -296.191

 3  4  5  6  7  8  9  10  11  12  13  23  28  29  30  31  32 0
 6-311+G(2d,p)
 ****
 33  34 0
 6-311+G(2d,p)
 ****
 1  2  14  15  16  17  18  19  20  21  22  24  25  26 0
 3-21G
 ****
 27  35  36  37  38  39  40  41  42  43  44  45 0
 3-21G
 ****


