%nproc=1
%NoSave
%Mem=1900MB
#P OB98/GEN NMR

erre ene a

0 1
  C      -62.074    -323.478    -211.027
  O      -61.052    -322.908    -210.239
  P      -61.038    -323.110    -208.648
  C      -58.705    -324.151    -208.328
  O      -59.502    -322.981    -208.192
  C      -57.228    -323.773    -208.427
  O      -56.969    -322.970    -209.609
  C      -56.729    -322.912    -207.277
  O      -56.693    -323.501    -205.994
  C      -55.415    -322.393    -207.837
  O      -54.372    -323.360    -207.703
  C      -55.777    -322.197    -209.334
  N      -55.959    -320.782    -209.668
  C      -54.812    -320.106    -210.076
  O      -53.700    -320.630    -210.160
  N      -54.973    -318.773    -210.358
  C      -56.134    -318.066    -210.232
  O      -56.198    -316.860    -210.460
  C      -57.306    -318.830    -209.780
  C      -57.167    -320.135    -209.522
  O      -61.728    -324.339    -208.158
  O      -61.672    -321.744    -208.100
  H      -53.584    -323.008    -208.162
  H      -61.179    -320.941    -208.342
  H      -54.155    -318.261    -210.641
  H      -58.243    -318.300    -209.683
  H      -58.018    -320.721    -209.188
  H      -54.984    -322.603    -209.976
  H      -55.083    -321.486    -207.326
  H      -57.400    -322.046    -207.182
  H      -56.643    -324.691    -208.530
  H      -58.999    -324.678    -209.242
  H      -58.889    -324.822    -207.481
  P      -57.579    -322.986    -204.763
  C      -58.550    -325.270    -204.014
  O      -57.711    -324.180    -203.698
  O      -58.820    -322.224    -205.096
  O      -56.547    -321.998    -204.020
  H      -57.048    -321.279    -203.591
  H      -58.556    -325.964    -203.166
  H      -58.174    -325.801    -204.895
  H      -59.575    -324.928    -204.189
  H      -61.910    -323.233    -212.056
  H      -63.022    -323.092    -210.715
  H      -62.065    -324.541    -210.908

 3  4  5  6  7  8  9  10  11  12  13  23  28  29  30  31  32 0
 6-311+G(2d,p)
 ****
 33  34 0
 6-311+G(2d,p)
 ****
 1  2  14  15  16  17  18  19  20  21  22  24  25  26  27 0
 3-21G
 ****
 35  36  37  38  39  40  41  42  43  44  45 0
 3-21G
 ****


