%nproc=1
%NoSave
%Mem=1900MB
#P OB98/GEN NMR

erre ene a

0 1
  C      208.931      91.239    -223.434
  O      209.001      90.630    -224.707
  H      209.846      91.044    -222.869
  H      208.826      92.320    -223.567
  H      208.065      90.866    -222.882
  P      209.149      89.032    -224.738
  C      209.555      88.939    -227.304
  O      210.081      88.705    -226.004
  C      210.445      88.271    -228.345
  O      211.712      88.961    -228.437
  C      210.791      86.819    -228.035
  O      209.752      85.929    -228.407
  C      212.018      86.631    -228.912
  O      211.612      86.456    -230.283
  C      212.736      87.975    -228.735
  N      217.375      86.344    -227.322
  C      216.663      86.162    -228.453
  N      215.431      86.627    -228.751
  C      214.936      87.347    -227.732
  C      215.543      87.610    -226.515
  C      216.830      87.079    -226.324
  N      217.555      87.248    -225.166
  N      214.708      88.358    -225.705
  C      213.632      88.569    -226.437
  N      213.718      87.969    -227.665
  O      207.704      88.530    -225.212
  O      209.585      88.397    -223.461
  H      211.008      85.689    -230.300
  H      207.575      87.597    -224.960
  H      217.144      85.562    -229.221
  H      212.772      89.145    -226.124
  H      213.249      88.299    -229.650
  H      212.609      85.756    -228.640
  H      211.077      86.687    -226.984
  H      209.949      88.353    -229.320
  H      209.527      90.018    -227.491
  H      218.377      86.676    -225.060
  H      217.093      87.663    -224.368
  H      208.538      88.540    -227.359
  P      208.767      85.421    -227.246
  C      208.370      83.128    -228.408
  O      208.859      83.821    -227.264
  O      207.314      85.720    -227.845
  O      208.980      86.071    -225.918
  H      206.664      85.850    -227.128
  H      208.500      82.075    -228.270
  H      208.912      83.444    -229.275
  H      207.330      83.345    -228.539

 6  7  8  9  10  11  12  13  14  15  25  28  32  33  34  35 0
 6-311+G(2d,p)
 ****
 36  39  40 0
 6-311+G(2d,p)
 ****
 1  2  3  4  5  16  17  18  19  20  21  22  23  24 0
 3-21G
 ****
 26  27  29  30  31  37  38  41  42  43  44  45  46  47 0
 3-21G
 ****
 48 0
 3-21G
 ****


