%nproc=1
%NoSave
%Mem=1900MB
#P OB98/GEN NMR

erre ene a

0 1
  C     -585.807     311.561     229.569
  O     -587.184     311.254     229.628
  H     -585.691     312.644     229.473
  H     -585.355     311.080     228.697
  H     -585.297     311.233     230.480
  P     -587.587     309.749     230.004
  C     -590.049     310.445     230.484
  O     -589.167     309.619     229.738
  C     -591.146     310.993     229.576
  O     -590.544     311.914     228.622
  C     -591.881     309.917     228.764
  O     -593.255     310.292     228.647
  C     -591.224     310.006     227.398
  O     -592.025     309.508     226.336
  C     -590.962     311.511     227.305
  N     -589.946     311.845     226.305
  C     -590.140     313.001     225.558
  O     -591.053     313.806     225.736
  N     -589.221     313.223     224.563
  C     -588.172     312.410     224.240
  O     -587.394     312.656     223.326
  C     -588.026     311.203     225.062
  C     -588.907     310.978     226.036
  O     -587.479     309.738     231.602
  O     -586.759     308.682     229.368
  H     -586.578     309.489     231.879
  H     -592.800     310.109     226.252
  H     -589.347     314.055     224.014
  H     -587.210     310.528     224.823
  H     -588.838     310.080     226.649
  H     -591.889     312.051     227.076
  H     -590.282     309.445     227.399
  H     -591.808     308.908     229.188
  H     -591.854     311.572     230.181
  H     -589.486     311.283     230.906
  H     -590.481     309.861     231.303
  P     -594.333     309.395     229.424
  C     -595.513     311.198     230.916
  O     -595.556     310.377     229.754
  O     -593.608     309.176     230.825
  O     -594.691     308.144     228.684
  H     -593.081     309.946     231.109
  H     -596.408     311.782     230.973
  H     -594.665     311.848     230.862
  H     -595.434     310.581     231.786

 6  7  8  9  10  11  12  13  14  15  16  27  31  32  33  34  35 0
 6-311+G(2d,p)
 ****
 36  37 0
 6-311+G(2d,p)
 ****
 1  2  3  4  5  17  18  19  20  21  22  23  24  25 0
 3-21G
 ****
 26  28  29  30  38  39  40  41  42  43  44  45 0
 3-21G
 ****


