%nproc=1
%NoSave
%Mem=1900MB
#P OB98/GEN NMR

erre ene a

0 1
  C      468.618     107.026    -225.740
  O      468.177     105.879    -225.049
  H      467.809     107.370    -226.396
  H      469.486     106.796    -226.357
  H      468.860     107.829    -225.036
  P      469.231     105.052    -224.157
  C      467.273     103.994    -222.868
  O      468.422     103.739    -223.677
  C      466.621     102.689    -222.401
  O      465.930     102.072    -223.510
  C      467.612     101.659    -221.840
  O      467.102     101.127    -220.610
  C      467.655     100.579    -222.909
  O      468.050      99.314    -222.386
  C      466.225     100.649    -223.460
  N      466.083     100.028    -224.769
  C      465.677      98.682    -224.771
  O      465.475      98.093    -223.710
  N      465.521      98.046    -225.975
  C      465.802      98.665    -227.080
  N      465.639      97.973    -228.248
  C      466.283     100.064    -227.121
  C      466.396     100.681    -225.942
  O      469.866     105.835    -223.056
  O      470.277     104.461    -225.212
  H      467.893      98.631    -223.081
  H      471.111     104.217    -224.746
  H      466.520     100.535    -228.066
  H      466.730     101.715    -225.874
  H      465.518     100.184    -222.770
  H      468.368     100.861    -223.691
  H      468.597     102.075    -221.650
  H      465.850     102.936    -221.665
  H      465.312      97.014    -228.167
  H      466.563     104.593    -223.451
  H      465.839      98.355    -229.161
  H      467.595     104.566    -221.992
  P      467.852     101.609    -219.271
  C      465.689     101.792    -217.842
  O      466.952     101.152    -218.015
  O      467.677     103.203    -219.310
  O      469.284     101.209    -219.197
  H      468.492     103.625    -219.633
  H      465.203     101.394    -216.976
  H      465.080     101.618    -218.704
  H      465.837     102.844    -217.716

 6  7  8  9  10  11  12  13  14  15  16  26  30  31  32  33  35 0
 6-311+G(2d,p)
 ****
 37  38 0
 6-311+G(2d,p)
 ****
 1  2  3  4  5  17  18  19  20  21  22  23  24  25 0
 3-21G
 ****
 27  28  29  34  36  39  40  41  42  43  44  45  46 0
 3-21G
 ****


