%nproc=1
%NoSave
%Mem=1900MB
#P OB98/GEN NMR

erre ene a

0 1
  C     -896.870    1044.541    -161.126
  O     -897.610    1043.536    -161.815
  P     -896.880    1042.834    -163.081
  C     -898.720    1043.642    -164.828
  O     -897.370    1043.714    -164.364
  C     -899.000    1044.703    -165.896
  O     -898.900    1046.011    -165.252
  C     -897.970    1044.734    -167.006
  O     -898.190    1043.691    -167.968
  C     -898.170    1046.160    -167.552
  O     -899.330    1046.186    -168.404
  C     -898.440    1046.938    -166.252
  N     -897.280    1047.683    -165.790
  C     -897.190    1048.995    -166.228
  O     -898.020    1049.574    -166.925
  N     -896.050    1049.691    -165.751
  C     -895.040    1049.158    -165.038
  O     -894.030    1049.793    -164.722
  C     -895.160    1047.748    -164.644
  C     -896.260    1047.079    -165.034
  O     -897.700    1041.475    -163.193
  O     -895.410    1042.707    -162.931
  H     -898.610    1041.566    -162.814
  H     -899.190    1047.006    -168.969
  H     -895.960    1050.644    -166.048
  H     -894.370    1047.289    -164.073
  H     -896.390    1046.027    -164.761
  H     -899.260    1047.683    -166.412
  H     -897.320    1046.521    -168.133
  H     -896.950    1044.652    -166.612
  H     -900.000    1044.565    -166.279
  H     -899.400    1043.781    -163.991
  H     -898.880    1042.628    -165.241
  P     -897.090    1043.532    -169.106
  C     -898.770    1044.380    -170.935
  O     -897.550    1044.547    -170.290
  O     -897.440    1042.089    -169.659
  O     -895.690    1043.710    -168.632
  H     -898.400    1041.919    -169.748
  H     -899.080    1045.307    -171.403
  H     -899.560    1044.145    -170.197
  H     -898.720    1043.589    -171.675
  H     -897.456    1044.924    -160.317
  H     -896.633    1045.336    -161.802
  H     -895.966    1044.118    -160.742

 3  4  5  6  7  8  9  10  11  12  13  24  28  29  30  31  32 0
 6-311+G(2d,p)
 ****
 33  34 0
 6-311+G(2d,p)
 ****
 1  2  14  15  16  17  18  19  20  21  22  23  25  26  27 0
 3-21G
 ****
 35  36  37  38  39  40  41  42  43  44  45 0
 3-21G
 ****


