%nproc=1
%NoSave
%Mem=1900MB
#P OB98/GEN NMR

erre ene a

0 1
  C     -156.280     281.421     135.542
  O     -156.013     282.728     136.022
  P     -156.927     283.920     135.438
  C     -157.181     285.037     133.089
  O     -156.460     284.143     133.920
  C     -156.241     285.624     132.031
  O     -155.397     286.637     132.612
  C     -155.306     284.604     131.395
  O     -155.972     283.885     130.372
  C     -154.183     285.501     130.885
  O     -154.541     286.112     129.633
  C     -154.081     286.551     132.003
  N     -149.234     287.136     133.329
  C     -149.873     287.438     132.135
  N     -149.117     288.017     131.174
  N     -151.138     287.190     131.908
  C     -151.764     286.595     132.951
  C     -151.237     286.236     134.171
  C     -149.851     286.563     134.431
  O     -149.264     286.405     135.495
  N     -152.174     285.631     134.967
  C     -153.275     285.655     134.238
  N     -153.085     286.249     133.017
  O     -156.378     285.205     136.211
  O     -158.402     283.729     135.607
  H     -154.630     285.421     128.949
  H     -156.954     285.425     136.967
  H     -148.262     287.361     133.450
  H     -154.234     285.278     134.562
  H     -153.840     287.549     131.610
  H     -153.254     284.940     130.707
  H     -148.134     288.212     131.271
  H     -154.915     283.916     132.156
  H     -149.572     288.237     130.295
  H     -156.862     286.107     131.262
  H     -157.583     285.850     133.703
  H     -158.012     284.502     132.619
  P     -155.712     282.307     130.281
  C     -153.553     280.858     130.350
  O     -154.143     282.099     130.010
  O     -156.399     281.897     128.893
  O     -156.271     281.519     131.422
  H     -156.801     281.007     128.977
  H     -152.715     280.677     129.675
  H     -154.267     280.036     130.267
  H     -153.183     280.911     131.377
  H     -155.609     280.727     136.004
  H     -156.144     281.396     134.481
  H     -157.289     281.153     135.778

 3  4  5  6  7  8  9  10  11  12  23  26  30  31 0
 6-311+G(2d,p)
 ****
 33  35  36  37  38 0
 6-311+G(2d,p)
 ****
 1  2  13  14  15  16  17  18  19  20  21  22  24  25 0
 3-21G
 ****
 27  28  29  32  34  39  40  41  42  43  44  45  46  47  48  49 0
 3-21G
 ****


