%nproc=1
%NoSave
%Mem=1900MB
#P OB98/GEN NMR

erre ene a

0 1
  C      -11.895     -14.949    -328.870
  O      -11.540     -14.373    -330.111
  H      -12.642     -14.313    -328.388
  H      -11.021     -15.023    -328.220
  H      -12.327     -15.940    -329.027
  P      -10.408     -15.134    -330.957
  C       -9.117     -12.904    -330.875
  O       -9.609     -13.954    -331.700
  C       -9.366     -11.545    -331.535
  O       -8.766     -11.555    -332.858
  C      -10.854     -11.210    -331.702
  O      -11.038      -9.808    -331.515
  C      -11.122     -11.562    -333.159
  O      -12.249     -10.871    -333.682
  C       -9.787     -11.193    -333.802
  N       -9.047     -10.522    -338.796
  C       -9.033      -9.664    -337.757
  N       -9.219      -9.931    -336.448
  C       -9.380     -11.255    -336.255
  C       -9.416     -12.251    -337.213
  C       -9.252     -11.840    -338.547
  N       -9.297     -12.703    -339.616
  N       -9.649     -13.477    -336.618
  C       -9.739     -13.229    -335.329
  N       -9.598     -11.889    -335.064
  O      -10.893     -16.229    -331.844
  O       -9.383     -15.577    -329.811
  H      -12.471     -11.255    -334.560
  H       -9.194     -14.843    -329.195
  H       -8.858      -8.617    -338.016
  H       -9.909     -13.964    -334.552
  H       -9.701     -10.114    -334.014
  H      -11.313     -12.633    -333.251
  H      -11.498     -11.765    -331.022
  H       -8.845     -10.771    -330.955
  H       -8.040     -13.036    -330.705
  H       -9.171     -12.325    -340.542
  H       -9.443     -13.688    -339.454
  H       -9.632     -12.962    -329.913
  P      -12.124      -9.295    -330.460
  C      -12.713      -7.231    -331.883
  O      -12.292      -7.709    -330.611
  O      -11.942      -9.777    -329.057
  O      -13.501      -9.847    -331.076
  H      -14.063     -10.199    -330.355
  H      -12.787      -6.164    -331.856
  H      -13.668      -7.649    -332.123
  H      -12.000      -7.520    -332.627

 6  7  8  9  10  11  12  13  14  15  25  28  32  33  34  35 0
 6-311+G(2d,p)
 ****
 36  39  40 0
 6-311+G(2d,p)
 ****
 1  2  3  4  5  16  17  18  19  20  21  22  23  24 0
 3-21G
 ****
 26  27  29  30  31  37  38  41  42  43  44  45  46  47 0
 3-21G
 ****
 48 0
 3-21G
 ****


