%nproc=1
%NoSave
%Mem=1900MB
#P OB98/GEN NMR

erre ene a

0 1
  C     -178.917     279.102      96.513
  O     -179.613     278.062      95.856
  H     -179.367     280.056      96.231
  H     -177.864     279.107      96.212
  H     -178.993     278.987      97.598
  P     -179.116     276.553      96.074
  C     -177.506     274.955      94.838
  O     -177.996     276.287      94.957
  C     -176.228     274.936      94.001
  O     -175.130     275.497      94.751
  C     -175.784     273.540      93.570
  O     -176.511     273.115      92.427
  C     -174.320     273.795      93.263
  O     -174.197     274.461      91.992
  C     -173.925     274.761      94.397
  N     -169.760     273.181      96.838
  C     -169.901     273.678      95.556
  N     -168.780     273.738      94.809
  N     -171.044     274.072      95.049
  C     -172.088     273.893      95.886
  C     -172.079     273.392      97.170
  C     -170.803     273.022      97.743
  O     -170.630     272.600      98.881
  N     -173.350     273.273      97.670
  C     -174.126     273.747      96.715
  N     -173.407     274.128      95.603
  O     -180.189     275.509      96.120
  O     -178.272     276.608      97.433
  H     -173.256     274.683      91.871
  H     -178.833     276.406      98.203
  H     -168.856     272.887      97.173
  H     -175.202     273.841      96.772
  H     -173.175     275.491      94.077
  H     -173.731     272.878      93.204
  H     -167.905     273.313      95.090
  H     -175.854     272.817      94.390
  H     -168.871     274.046      93.846
  H     -176.386     275.584      93.130
  H     -178.288     274.359      94.356
  H     -177.304     274.533      95.829
  P     -177.102     271.624      92.315
  C     -175.992     269.295      92.121
  O     -175.839     270.651      92.498
  O     -177.915     271.364      91.093
  O     -177.892     271.404      93.687
  H     -178.818     271.748      93.655
  H     -175.076     268.770      92.297
  H     -176.241     269.240      91.082
  H     -176.775     268.850      92.699

 6  7  8  9  10  11  12  13  14  15  26  29  33  34 0
 6-311+G(2d,p)
 ****
 36  38  39  40  41 0
 6-311+G(2d,p)
 ****
 1  2  3  4  5  16  17  18  19  20  21  22  23  24  25 0
 3-21G
 ****
 27  28  30  31  32  35  37  42  43  44  45  46  47 0
 3-21G
 ****
 48  49 0
 3-21G
 ****


