%nproc=1
%NoSave
%Mem=1900MB
#P OB98/GEN NMR

erre ene a

0 1
  C      361.625    -164.213    -485.209
  O      362.939    -164.453    -484.748
  H      361.067    -163.690    -484.423
  H      361.127    -165.157    -485.430
  H      361.652    -163.580    -486.102
  P      363.932    -165.213    -485.749
  C      364.349    -167.697    -486.399
  O      363.562    -166.776    -485.648
  C      363.447    -168.591    -487.251
  O      362.516    -169.293    -486.389
  C      362.622    -167.815    -488.303
  O      362.545    -168.609    -489.501
  C      361.241    -167.754    -487.667
  O      360.216    -167.567    -488.636
  C      361.199    -169.096    -486.946
  N      356.220    -168.950    -486.162
  C      356.944    -168.959    -487.339
  N      356.236    -168.908    -488.491
  N      358.248    -168.998    -487.391
  C      358.827    -169.070    -486.163
  C      358.226    -169.062    -484.929
  C      356.779    -168.997    -484.888
  O      356.089    -168.972    -483.877
  N      359.166    -169.116    -483.923
  C      360.332    -169.152    -484.557
  N      360.171    -169.125    -485.909
  O      365.354    -165.126    -485.011
  O      363.990    -164.671    -487.141
  H      359.351    -167.667    -488.185
  H      366.084    -165.109    -485.658
  H      355.220    -168.913    -486.178
  H      361.303    -169.197    -484.073
  H      360.985    -169.931    -487.626
  H      361.204    -166.916    -486.954
  H      355.229    -168.904    -488.530
  H      363.023    -166.832    -488.536
  H      356.740    -168.913    -489.373
  H      364.073    -169.356    -487.734
  H      364.929    -168.316    -485.706
  H      365.038    -167.137    -487.042
  P      363.130    -167.969    -490.848
  C      362.327    -166.304    -492.677
  O      361.998    -167.020    -491.493
  O      363.182    -169.228    -491.854
  O      364.478    -167.351    -490.697
  H      364.105    -169.493    -491.999
  H      361.485    -165.721    -492.987
  H      362.587    -166.995    -493.451
  H      363.157    -165.657    -492.484

 6  7  8  9  10  11  12  13  14  15  26  29  33  34 0
 6-311+G(2d,p)
 ****
 36  38  39  40  41 0
 6-311+G(2d,p)
 ****
 1  2  3  4  5  16  17  18  19  20  21  22  23  24  25 0
 3-21G
 ****
 27  28  30  31  32  35  37  42  43  44  45  46  47 0
 3-21G
 ****
 48  49 0
 3-21G
 ****


