%nproc=1
%NoSave
%Mem=1900MB
#P OB98/GEN NMR

erre ene a

0 1
  C     1548.378    -895.090      14.145
  O     1548.208    -894.570      15.450
  P     1547.500    -895.410      16.591
  C     1548.808    -894.320      18.596
  O     1547.568    -894.590      17.964
  C     1548.536    -893.770      20.005
  O     1547.694    -894.710      20.743
  C     1549.821    -893.630      20.798
  O     1550.314    -892.270      20.713
  C     1549.403    -893.980      22.223
  O     1548.755    -892.890      22.861
  C     1548.391    -895.140      21.930
  N     1548.909    -896.480      21.699
  C     1549.580    -897.160      22.733
  O     1549.720    -896.710      23.863
  N     1550.078    -898.390      22.403
  C     1549.957    -899.020      21.197
  O     1550.599    -900.000      20.844
  C     1549.025    -898.380      20.259
  C     1548.564    -897.160      20.533
  O     1548.520    -896.630      16.856
  O     1546.125    -895.910      16.270
  H     1549.371    -892.160      22.885
  H     1548.230    -897.430      16.380
  H     1550.675    -898.830      23.107
  H     1548.779    -898.910      19.329
  H     1547.914    -896.660      19.830
  H     1547.653    -895.210      22.762
  H     1550.263    -894.240      22.842
  H     1550.588    -894.320      20.461
  H     1548.024    -892.830      19.926
  H     1549.381    -893.610      18.022
  H     1549.405    -895.240      18.663
  P     1551.856    -892.010      20.525
  C     1551.378    -889.490      20.285
  O     1552.095    -890.490      21.000
  O     1552.427    -892.360      19.174
  O     1552.528    -892.890      21.675
  H     1552.825    -893.750      21.331
  H     1551.465    -888.570      20.829
  H     1550.302    -889.760      20.239
  H     1551.774    -889.380      19.301
  H     1548.876    -894.366      13.534
  H     1547.421    -895.315      13.723
  H     1548.966    -895.983      14.191

 3  4  5  6  7  8  9  10  11  12  13  23  28  29  30  31  32 0
 6-311+G(2d,p)
 ****
 33  34 0
 6-311+G(2d,p)
 ****
 1  2  14  15  16  17  18  19  20  21  22  24  25  26  27 0
 3-21G
 ****
 35  36  37  38  39  40  41  42  43  44  45 0
 3-21G
 ****


