%nproc=1
%NoSave
%Mem=1900MB
#P OB98/GEN NMR

erre ene a

0 1
  C     -138.913     -69.579    -892.640
  O     -138.635     -69.429    -894.040
  P     -138.226     -67.994    -894.610
  C     -135.680     -68.544    -894.440
  O     -136.718     -67.623    -894.160
  C     -134.423     -67.814    -894.970
  O     -134.670     -67.328    -896.330
  C     -133.983     -66.602    -894.130
  O     -132.556     -66.524    -894.230
  C     -134.613     -65.441    -894.870
  O     -134.013     -64.189    -894.580
  C     -134.420     -65.906    -896.330
  N     -135.277     -65.217    -897.310
  C     -134.815     -64.044    -897.850
  O     -133.772     -63.479    -897.520
  N     -135.635     -63.453    -898.790
  C     -136.871     -63.911    -899.180
  O     -137.559     -63.340    -900.000
  C     -137.308     -65.166    -898.540
  C     -136.510     -65.740    -897.650
  O     -139.100     -67.004    -893.680
  O     -138.537     -67.754    -896.060
  H     -134.501     -63.511    -895.090
  H     -139.522     -66.325    -894.240
  H     -135.313     -62.597    -899.190
  H     -138.277     -65.568    -898.840
  H     -136.819     -66.682    -897.170
  H     -133.369     -65.770    -896.610
  H     -135.682     -65.373    -894.600
  H     -134.303     -66.676    -893.090
  H     -133.608     -68.549    -895.050
  H     -136.016     -69.252    -895.190
  H     -135.439     -69.092    -893.520
  P     -131.689     -67.525    -893.310
  C     -130.309     -69.052    -894.940
  O     -131.470     -68.874    -894.150
  O     -132.778     -67.955    -892.210
  O     -130.460     -66.910    -892.710
  H     -133.643     -68.173    -892.610
  H     -129.414     -68.685    -894.430
  H     -130.437     -68.519    -895.880
  H     -130.190     -70.118    -895.130
  H     -139.168     -70.597    -892.434
  H     -139.731     -68.944    -892.369
  H     -138.047     -69.307    -892.073

 3  4  5  6  7  8  9  10  11  12  13  23  28  29  30  31  32 0
 6-311+G(2d,p)
 ****
 33  34 0
 6-311+G(2d,p)
 ****
 1  2  14  15  16  17  18  19  20  21  22  24  25  26 0
 3-21G
 ****
 27  35  36  37  38  39  40  41  42  43  44  45 0
 3-21G
 ****


