%nproc=1
%NoSave
%Mem=1900MB
#P OB98/GEN NMR

erre ene a

0 1
  C      338.589    -762.765    -178.325
  O      339.477    -763.777    -177.842
  P      340.917    -763.392    -177.243
  C      340.697    -764.361    -174.868
  O      341.334    -764.486    -176.136
  C      340.708    -765.634    -174.045
  O      339.786    -766.618    -174.578
  C      342.075    -766.331    -173.927
  O      342.107    -766.928    -172.632
  C      342.007    -767.376    -175.015
  O      342.953    -768.422    -174.847
  C      340.530    -767.812    -174.906
  N      340.048    -768.454    -176.124
  C      340.342    -769.809    -176.282
  O      341.036    -770.403    -175.444
  N      339.882    -770.468    -177.405
  C      339.283    -769.796    -178.336
  N      338.881    -770.473    -179.434
  C      339.019    -768.334    -178.247
  C      339.417    -767.747    -177.112
  O      341.040    -761.972    -176.793
  O      341.931    -763.689    -178.449
  H      342.845    -768.798    -173.958
  H      342.693    -763.077    -178.390
  H      338.541    -767.806    -179.061
  H      339.268    -766.687    -176.947
  H      340.404    -768.519    -174.054
  H      342.185    -766.921    -176.001
  H      342.921    -765.643    -174.074
  H      340.341    -765.382    -173.039
  H      339.097    -771.472    -179.480
  H      339.659    -764.046    -175.046
  H      338.499    -770.041    -180.260
  H      341.181    -763.544    -174.309
  P      343.183    -766.501    -171.524
  C      341.354    -766.288    -169.744
  O      342.571    -766.897    -170.095
  O      343.662    -765.098    -171.616
  O      344.405    -767.533    -171.716
  H      345.197    -767.175    -171.268
  H      340.916    -766.782    -168.874
  H      340.632    -766.344    -170.581
  H      341.523    -765.220    -169.503
  H      337.688    -763.221    -178.680
  H      339.058    -762.231    -179.125
  H      338.356    -762.086    -177.531

 3  4  5  6  7  8  9  10  11  12  13  23  27  28  29  30  32 0
 6-311+G(2d,p)
 ****
 34  35 0
 6-311+G(2d,p)
 ****
 1  2  14  15  16  17  18  19  20  21  22  24  25  26 0
 3-21G
 ****
 31  33  36  37  38  39  40  41  42  43  44  45  46 0
 3-21G
 ****


