%nproc=1
%NoSave
%Mem=1900MB
#P OB98/GEN NMR

erre ene a

0 1
  C     -129.624     430.430    -269.748
  O     -130.106     429.176    -269.267
  P     -129.898     427.866    -270.174
  C     -130.071     425.803    -268.648
  O     -130.759     426.662    -269.547
  C     -130.042     426.358    -267.216
  O     -131.360     426.802    -266.805
  C     -129.553     425.354    -266.158
  O     -128.811     426.096    -265.187
  C     -130.853     424.840    -265.572
  O     -130.670     424.218    -264.309
  C     -131.679     426.132    -265.568
  N     -133.106     425.882    -265.442
  C     -133.580     425.514    -264.180
  O     -132.788     425.317    -263.259
  N     -134.934     425.353    -264.008
  C     -135.720     425.404    -265.039
  N     -137.055     425.262    -264.826
  C     -135.233     425.613    -266.416
  C     -133.932     425.865    -266.538
  O     -128.479     427.522    -270.490
  O     -130.714     428.224    -271.508
  H     -131.546     423.984    -263.940
  H     -130.256     427.828    -272.276
  H     -135.914     425.561    -267.255
  H     -133.476     426.036    -267.503
  H     -131.367     426.793    -264.749
  H     -131.296     424.105    -266.251
  H     -128.912     424.567    -266.572
  H     -129.385     427.239    -267.210
  H     -137.373     425.098    -263.878
  H     -129.044     425.665    -268.997
  H     -137.739     425.340    -265.568
  H     -130.537     424.812    -268.674
  P     -127.236     425.818    -265.025
  C     -126.351     428.235    -264.680
  O     -126.620     426.978    -264.110
  O     -126.688     426.221    -266.483
  O     -126.849     424.412    -264.705
  H     -125.852     425.742    -266.647
  H     -126.210     428.965    -263.879
  H     -127.178     428.573    -265.313
  H     -125.431     428.183    -265.271
  H     -129.840     431.194    -269.031
  H     -130.104     430.665    -270.675
  H     -128.566     430.371    -269.899

 3  4  5  6  7  8  9  10  11  12  13  23  27  28  29  30  32 0
 6-311+G(2d,p)
 ****
 34  35 0
 6-311+G(2d,p)
 ****
 1  2  14  15  16  17  18  19  20  21  22  24  25  26 0
 3-21G
 ****
 31  33  36  37  38  39  40  41  42  43  44  45  46 0
 3-21G
 ****


