%nproc=1
%NoSave
%Mem=1900MB
#P OB98/GEN NMR

erre ene a

0 1
  C     -154.573     -60.697      13.510
  O     -155.829     -61.089      14.044
  P     -156.861     -59.922      14.439
  C     -156.691     -57.787      15.903
  O     -156.103     -59.029      15.535
  C     -156.651     -57.603      17.414
  O     -157.634     -58.453      18.035
  C     -155.326     -57.976      18.063
  O     -154.367     -56.936      17.945
  C     -155.751     -58.165      19.512
  O     -155.825     -56.886      20.167
  C     -157.156     -58.774      19.366
  N     -157.194     -62.583      22.703
  C     -157.179     -61.218      22.916
  N     -157.205     -60.812      24.204
  N     -157.140     -60.334      21.956
  C     -157.159     -60.884      20.720
  C     -157.172     -62.220      20.380
  C     -157.163     -63.189      21.453
  O     -157.111     -64.410      21.324
  N     -157.203     -62.387      19.019
  C     -157.246     -61.161      18.538
  N     -157.191     -60.214      19.530
  O     -157.970     -60.695      15.296
  O     -157.460     -59.189      13.288
  H     -156.403     -56.996      20.946
  H     -158.817     -60.212      15.255
  H     -157.241     -63.219      23.478
  H     -157.317     -60.916      17.487
  H     -157.860     -58.325      20.076
  H     -155.050     -58.778      20.086
  H     -157.367     -61.438      24.978
  H     -154.944     -58.922      17.665
  H     -157.231     -59.816      24.379
  H     -156.912     -56.561      17.640
  H     -157.733     -57.769      15.570
  H     -156.150     -56.978      15.402
  P     -152.914     -57.357      17.402
  C     -150.846     -58.471      18.512
  O     -152.205     -58.100      18.632
  O     -152.143     -55.960      17.296
  O     -152.932     -58.094      16.106
  H     -151.435     -56.016      16.625
  H     -150.277     -57.728      17.946
  H     -150.776     -59.441      18.013
  H     -150.414     -58.554      19.511
  H     -153.990     -61.568      13.293
  H     -154.056     -60.090      14.224
  H     -154.727     -60.138      12.611

 3  4  5  6  7  8  9  10  11  12  23  26  30  31  33  0
 6-311+G(2d,p)
 ****
 35  36  37  38 0
 6-311+G(2d,p)
 ****
 1  2  13  14  15  16  17  18  19  20  21  22  24  25  27  28  29 0
 3-21G
 ****
 32  34  39  40  41  42  43  44  45  46  47  48  49 0
 3-21G
 ****


