%nproc=1
%NoSave
%Mem=1900MB
#P OB98/GEN NMR

erre ene a

0 1
  C     -722.272    -287.168    1470.408
  O     -722.398    -288.124    1469.374
  H     -723.220    -286.644    1470.514
  H     -721.491    -286.448    1470.163
  H     -722.036    -287.669    1471.358
  P     -721.114    -289.001    1468.959
  C     -721.414    -288.753    1466.406
  O     -721.436    -289.629    1467.522
  C     -722.568    -289.067    1465.456
  O     -722.252    -290.306    1464.761
  C     -723.912    -289.272    1466.190
  O     -724.960    -288.454    1465.677
  C     -724.098    -290.775    1466.173
  O     -725.435    -291.204    1466.252
  C     -723.357    -291.197    1464.909
  N     -722.892    -292.599    1464.921
  C     -723.458    -293.459    1463.986
  O     -724.293    -293.164    1463.133
  N     -723.004    -294.769    1464.048
  C     -722.097    -295.256    1464.930
  O     -721.734    -296.428    1464.937
  C     -721.552    -294.297    1465.908
  C     -721.986    -293.025    1465.862
  O     -720.658    -289.970    1469.995
  O     -719.987    -287.911    1468.638
  H     -725.430    -292.187    1466.206
  H     -719.348    -287.874    1469.373
  H     -723.398    -295.399    1463.362
  H     -720.843    -294.664    1466.631
  H     -721.607    -292.287    1466.554
  H     -724.014    -291.099    1464.030
  H     -723.576    -291.210    1467.053
  H     -723.815    -288.929    1467.233
  H     -722.644    -288.280    1464.698
  H     -720.452    -288.883    1465.887
  H     -721.491    -287.714    1466.760
  P     -725.494    -287.110    1466.346
  C     -727.867    -287.495    1465.244
  O     -726.774    -286.624    1465.528
  O     -724.468    -286.085    1466.668
  O     -726.154    -287.611    1467.747
  H     -726.021    -286.884    1468.380
  H     -728.611    -286.964    1464.688
  H     -728.290    -287.847    1466.162
  H     -727.519    -288.328    1464.669

 6  7  8  9  10  11  12  13  14  15  16  26  31  32  33  34  35 0
 6-311+G(2d,p)
 ****
 36  37 0
 6-311+G(2d,p)
 ****
 1  2  3  4  5  17  18  19  20  21  22  23  24  25 0
 3-21G
 ****
 27  28  29  30  38  39  40  41  42  43  44  45 0
 3-21G
 ****


