%nproc=1
%NoSave
%Mem=1900MB
#P OB98/GEN NMR

erre ene a

0 1
  C      -80.278    -620.491     289.547
  O      -79.079    -619.805     289.240
  H      -80.807    -620.704     288.615
  H      -80.916    -619.873     290.184
  H      -80.051    -621.438     290.047
  P      -78.164    -619.368     290.480
  C      -76.649    -618.298     288.672
  O      -77.301    -618.133     289.925
  C      -76.287    -616.939     288.077
  O      -77.471    -616.255     287.639
  C      -75.581    -615.999     289.047
  O      -74.194    -616.280     289.095
  C      -75.850    -614.657     288.389
  O      -74.912    -614.445     287.314
  C      -77.267    -614.831     287.816
  N      -80.140    -610.715     288.905
  C      -79.025    -610.857     288.150
  N      -78.284    -611.969     287.950
  C      -78.803    -613.014     288.621
  C      -79.926    -613.020     289.427
  C      -80.614    -611.803     289.558
  N      -81.745    -611.658     290.330
  N      -80.150    -614.274     289.955
  C      -79.209    -615.030     289.419
  N      -78.346    -614.302     288.634
  O      -77.397    -620.465     291.139
  O      -79.242    -618.639     291.415
  H      -74.969    -613.500     287.072
  H      -79.850    -618.104     290.879
  H      -78.683    -609.963     287.643
  H      -79.123    -616.100     289.555
  H      -77.368    -614.362     286.829
  H      -75.736    -613.819     289.076
  H      -76.046    -616.014     290.040
  H      -75.662    -617.122     287.186
  H      -77.300    -618.846     287.983
  H      -82.060    -610.718     290.523
  H      -82.023    -612.435     290.913
  H      -75.747    -618.895     288.844
  P      -73.453    -616.555     290.489
  C      -71.297    -616.731     289.103
  O      -71.920    -616.148     290.234
  O      -73.675    -617.919     291.054
  O      -73.977    -615.397     291.451
  H      -73.798    -615.621     292.384
  H      -70.286    -616.388     289.037
  H      -71.828    -616.449     288.218
  H      -71.307    -617.797     289.200

 6  7  8  9  10  11  12  13  14  15  25  28  32  33  34  35 0
 6-311+G(2d,p)
 ****
 36  39  40 0
 6-311+G(2d,p)
 ****
 1  2  3  4  5  16  17  18  19  20  21  22  23  24 0
 3-21G
 ****
 26  27  29  30  31  37  38  41  42  43  44  45  46  47 0
 3-21G
 ****
 48 0
 3-21G
 ****


