%nproc=1
%NoSave
%Mem=1900MB
#P OB98/GEN NMR

erre ene a

0 1
  C       79.459     181.580    -649.993
  O       78.466     182.224    -650.772
  P       77.488     183.255    -650.016
  C       78.607     185.461    -650.842
  O       78.345     184.589    -649.752
  C       78.070     186.867    -650.533
  O       76.657     186.928    -650.799
  C       78.237     187.294    -649.083
  O       79.582     187.661    -648.804
  C       77.241     188.443    -649.022
  O       77.807     189.625    -649.607
  C       76.090     187.922    -649.911
  N       72.462     188.755    -646.385
  C       73.396     189.566    -646.930
  N       74.339     189.265    -647.845
  C       74.257     187.971    -648.207
  C       73.372     187.028    -647.722
  C       72.437     187.455    -646.773
  N       71.488     186.624    -646.217
  N       73.606     185.799    -648.314
  C       74.606     186.008    -649.141
  N       75.020     187.311    -649.128
  O       77.346     182.616    -648.561
  O       76.165     183.464    -650.680
  H       78.699     189.740    -649.229
  H       76.454     182.782    -648.193
  H       73.391     190.594    -646.575
  H       75.052     185.256    -649.781
  H       75.641     188.709    -650.528
  H       76.934     188.698    -647.999
  H       77.928     186.484    -648.406
  H       78.581     187.572    -651.203
  H       78.102     185.086    -651.742
  H       70.957     186.975    -645.439
  H       71.561     185.630    -646.399
  H       79.680     185.484    -651.036
  P       80.109     187.436    -647.304
  C       80.372     185.020    -648.143
  O       79.943     185.857    -647.074
  O       78.898     188.031    -646.445
  O       81.462     188.000    -647.027
  H       78.038     187.701    -646.741
  H       80.256     183.973    -647.844
  H       81.420     185.209    -648.376
  H       79.754     185.200    -649.030
  H       80.034     180.927    -650.616
  H       78.990     181.011    -649.217
  H       80.103     182.315    -649.557

 3  4  5  6  7  8  9  10  11  12  22  25  29  30  31  32 0
 6-311+G(2d,p)
 ****
 33  36  37 0
 6-311+G(2d,p)
 ****
 1  2  13  14  15  16  17  18  19  20  21  23  24  26 0
 3-21G
 ****
 27  28  34  35  38  39  40  41  42  43  44  45  46  47  48 0
 3-21G
 ****


