%nproc=1
%NoSave
%Mem=1900MB
#P OB98/GEN NMR

erre ene a

0 1
  C     -346.210    -302.953     -64.442
  O     -345.995    -301.941     -63.466
  P     -345.893    -300.417     -63.951
  C     -343.263    -300.092     -63.791
  O     -344.445    -300.143     -64.566
  C     -342.172    -299.345     -64.578
  O     -341.677    -300.174     -65.651
  C     -342.665    -298.040     -65.200
  O     -342.576    -296.951     -64.296
  C     -341.747    -297.904     -66.404
  O     -340.455    -297.422     -65.996
  C     -341.652    -299.381     -66.872
  N     -342.701    -299.888     -67.788
  C     -342.812    -299.372     -69.076
  O     -342.079    -298.484     -69.532
  N     -343.797    -299.907     -69.860
  C     -344.555    -301.004     -69.568
  O     -345.389    -301.478     -70.334
  C     -344.306    -301.607     -68.258
  C     -343.414    -301.027     -67.434
  O     -345.891    -299.583     -62.589
  O     -346.993    -299.991     -64.868
  H     -339.904    -297.357     -66.796
  H     -346.689    -299.022     -62.527
  H     -343.934    -299.498     -70.772
  H     -344.856    -302.508     -67.997
  H     -343.221    -301.463     -66.463
  H     -340.690    -299.564     -67.365
  H     -342.133    -297.177     -67.108
  H     -343.693    -298.164     -65.571
  H     -341.336    -299.139     -63.889
  H     -342.922    -301.097     -63.541
  H     -343.464    -299.581     -62.842
  P     -343.882    -296.074     -63.973
  C     -343.017    -293.801     -64.799
  O     -343.882    -294.892     -65.055
  O     -344.052    -295.652     -62.554
  O     -345.088    -297.002     -64.474
  H     -345.468    -297.520     -63.719
  H     -343.000    -293.152     -65.682
  H     -342.001    -294.161     -64.595
  H     -343.381    -293.232     -63.942
  H     -346.254    -303.908     -63.962
  H     -345.405    -302.945     -65.147
  H     -347.132    -302.767     -64.951

 3  4  5  6  7  8  9  10  11  12  13  23  28  29  30  31  32 0
 6-311+G(2d,p)
 ****
 33  34 0
 6-311+G(2d,p)
 ****
 1  2  14  15  16  17  18  19  20  21  22  24  25  26  27 0
 3-21G
 ****
 35  36  37  38  39  40  41  42  43  44  45 0
 3-21G
 ****


