%nproc=1
%NoSave
%Mem=1900MB
#P OB98/GEN NMR

erre ene a

0 1
  C      132.864     280.867    -180.497
  O      131.740     281.230    -179.715
  P      131.501     280.476    -178.321
  C      129.292     279.288    -179.014
  O      130.651     279.148    -178.626
  C      128.391     278.446    -178.107
  O      126.994     278.786    -178.364
  C      128.536     276.929    -178.309
  O      128.337     276.300    -177.035
  C      127.370     276.609    -179.225
  O      127.013     275.235    -179.215
  C      126.307     277.550    -178.649
  N      125.176     277.757    -179.553
  C      123.901     277.738    -178.997
  O      123.674     277.558    -177.800
  N      122.863     277.871    -179.881
  C      122.969     277.928    -181.243
  O      121.993     277.930    -181.986
  C      124.341     277.945    -181.772
  C      125.365     277.859    -180.920
  O      130.461     281.429    -177.565
  O      132.737     280.246    -177.518
  H      126.296     275.112    -179.864
  H      130.926     281.985    -176.909
  H      121.931     277.869    -179.496
  H      124.460     278.012    -182.847
  H      126.388     277.848    -181.286
  H      125.939     277.161    -177.691
  H      127.629     276.883    -180.254
  H      129.504     276.634    -178.734
  H      128.603     278.712    -177.059
  H      129.177     278.948    -180.045
  H      129.004     280.343    -178.974
  P      129.047     274.880    -176.779
  C      126.805     273.614    -176.309
  O      127.958     273.754    -177.115
  O      129.127     274.872    -175.177
  O      130.379     274.745    -177.445
  H      128.306     275.190    -174.760
  H      126.462     274.579    -175.928
  H      127.032     272.953    -175.467
  H      126.007     273.165    -176.906
  H      132.883     281.457    -181.390
  H      132.799     279.831    -180.755
  H      133.759     281.040    -179.937

 3  4  5  6  7  8  9  10  11  12  13  23  28  29  30  31  32 0
 6-311+G(2d,p)
 ****
 33  34 0
 6-311+G(2d,p)
 ****
 1  2  14  15  16  17  18  19  20  21  22  24  25  26 0
 3-21G
 ****
 27  35  36  37  38  39  40  41  42  43  44  45 0
 3-21G
 ****


