%nproc=1
%NoSave
%Mem=1900MB
#P OB98/GEN NMR

erre ene a

0 1
  C      340.734    -163.015    -198.241
  O      341.980    -162.615    -197.713
  H      340.387    -162.253    -198.945
  H      339.994    -163.115    -197.442
  H      340.837    -163.965    -198.772
  P      342.618    -163.545    -196.575
  C      341.720    -164.280    -194.250
  O      341.814    -163.247    -195.223
  C      340.832    -163.821    -193.100
  O      339.638    -163.189    -193.626
  C      340.330    -164.949    -192.211
  O      341.304    -165.385    -191.279
  C      339.143    -164.279    -191.536
  O      339.546    -163.515    -190.392
  C      338.594    -163.369    -192.650
  N      337.376    -163.917    -193.243
  C      336.180    -163.450    -192.699
  O      336.128    -162.632    -191.782
  N      335.038    -163.992    -193.222
  C      334.977    -164.966    -194.177
  O      333.919    -165.448    -194.562
  C      336.272    -165.429    -194.704
  C      337.396    -164.894    -194.216
  O      344.052    -162.880    -196.322
  O      342.728    -164.991    -196.932
  H      344.748    -163.439    -196.711
  H      338.719    -163.227    -189.956
  H      334.160    -163.667    -192.844
  H      336.260    -166.205    -195.460
  H      338.361    -165.233    -194.580
  H      338.360    -162.375    -192.251
  H      338.425    -165.018    -191.193
  H      339.967    -165.781    -192.825
  H      341.382    -163.075    -192.506
  H      342.717    -164.506    -193.859
  H      341.316    -165.179    -194.724
  P      341.156    -166.868    -190.685
  C      339.333    -167.976    -189.147
  O      339.962    -166.795    -189.623
  O      342.487    -166.963    -189.796
  O      341.026    -167.916    -191.740
  H      342.778    -166.086    -189.493
  H      338.565    -167.715    -188.449
  H      340.058    -168.596    -188.663
  H      338.902    -168.507    -189.970

 6  7  8  9  10  11  12  13  14  15  16  27  31  32  33  34  35 0
 6-311+G(2d,p)
 ****
 36  37 0
 6-311+G(2d,p)
 ****
 1  2  3  4  5  17  18  19  20  21  22  23  24  25 0
 3-21G
 ****
 26  28  29  30  38  39  40  41  42  43  44  45 0
 3-21G
 ****


