%nproc=1
%NoSave
%Mem=1900MB
#P OB98/GEN NMR

erre ene a

0 1
  C       78.610     -68.019      18.649
  O       77.922     -67.371      19.701
  H       79.646     -68.184      18.958
  H       78.610     -67.399      17.748
  H       78.151     -68.988      18.434
  P       76.398     -66.943      19.466
  C       77.125     -64.467      19.287
  O       76.437     -65.551      18.673
  C       77.212     -63.277      18.333
  O       77.768     -63.688      17.068
  C       75.865     -62.640      18.007
  O       75.406     -61.861      19.094
  C       76.222     -61.863      16.751
  O       76.910     -60.645      17.076
  C       77.176     -62.856      16.042
  N       76.517     -63.673      15.028
  C       76.053     -62.994      13.895
  O       76.196     -61.775      13.802
  N       75.423     -63.718      12.912
  C       75.306     -65.003      13.023
  N       74.677     -65.659      12.012
  C       75.811     -65.760      14.185
  C       76.389     -65.040      15.144
  O       75.518     -66.940      20.678
  O       75.873     -67.975      18.360
  H       76.344     -60.177      17.721
  H       75.439     -68.739      18.784
  H       75.701     -66.834      14.232
  H       76.788     -65.520      16.032
  H       78.001     -62.315      15.559
  H       75.341     -61.587      16.170
  H       75.134     -63.412      17.740
  H       77.900     -62.541      18.772
  H       74.365     -65.098      11.227
  H       78.130     -64.823      19.537
  H       74.673     -66.664      11.915
  H       76.625     -64.168      20.216
  P       73.865     -61.436      19.231
  C       74.258     -59.381      17.737
  O       73.529     -60.586      17.911
  O       73.502     -60.773      20.515
  O       73.073     -62.803      18.972
  H       73.108     -63.379      19.777
  H       73.950     -58.906      16.829
  H       75.304     -59.601      17.687
  H       74.070     -58.728      18.563

 6  7  8  9  10  11  12  13  14  15  16  26  30  31  32  33  35 0
 6-311+G(2d,p)
 ****
 37  38 0
 6-311+G(2d,p)
 ****
 1  2  3  4  5  17  18  19  20  21  22  23  24  25 0
 3-21G
 ****
 27  28  29  34  36  39  40  41  42  43  44  45  46 0
 3-21G
 ****


