%nproc=1
%NoSave
%Mem=1900MB
#P OB98/GEN NMR

erre ene a

0 1
  C     -239.725    -198.147     -97.540
  O     -239.498    -197.121     -96.589
  P     -239.391    -197.553     -95.043
  C     -241.466    -196.818     -93.671
  O     -240.900    -197.782     -94.554
  C     -241.712    -195.502     -94.402
  O     -242.614    -195.719     -95.502
  C     -242.358    -194.417     -93.553
  O     -241.411    -193.749     -92.732
  C     -242.906    -193.491     -94.627
  O     -241.857    -192.628     -95.103
  C     -243.331    -194.477     -95.729
  N     -247.789    -193.349     -97.854
  C     -246.525    -192.852     -98.123
  N     -246.437    -191.944     -99.120
  N     -245.450    -193.211     -97.473
  C     -245.684    -194.155     -96.530
  C     -246.889    -194.720     -96.169
  C     -248.078    -194.276     -96.861
  O     -249.230    -194.629     -96.622
  N     -246.724    -195.654     -95.178
  C     -245.422    -195.678     -94.965
  N     -244.752    -194.765     -95.741
  O     -238.967    -196.194     -94.313
  O     -238.432    -198.661     -94.762
  H     -242.258    -192.017     -95.747
  H     -238.496    -196.396     -93.483
  H     -248.579    -193.048     -98.395
  H     -244.927    -196.340     -94.265
  H     -243.040    -194.114     -96.721
  H     -243.713    -192.843     -94.261
  H     -247.205    -191.728     -99.740
  H     -243.188    -194.822     -92.959
  H     -245.516    -191.600     -99.356
  H     -240.753    -195.154     -94.812
  H     -240.774    -196.640     -92.841
  H     -242.403    -197.215     -93.267
  P     -241.981    -193.024     -91.417
  C     -242.465    -190.471     -91.405
  O     -242.772    -191.738     -91.955
  O     -240.669    -192.417     -90.735
  O     -242.733    -193.928     -90.496
  H     -240.801    -192.320     -89.775
  H     -241.396    -190.380     -91.182
  H     -243.042    -190.323     -90.487
  H     -242.739    -189.702     -92.125
  H     -239.774    -197.720     -98.520
  H     -240.649    -198.640     -97.319
  H     -238.924    -198.855     -97.499

 3  4  5  6  7  8  9  10  11  12  23  26  30  31  33  0
 6-311+G(2d,p)
 ****
 35  36  37  38 0
 6-311+G(2d,p)
 ****
 1  2  13  14  15  16  17  18  19  20  21  22  24  25  27  28  29 0
 3-21G
 ****
 32  34  39  40  41  42  43  44  45  46  47  48  49 0
 3-21G
 ****


