%nproc=1
%NoSave
%Mem=1900MB
#P OB98/GEN NMR

erre ene a

0 1
  C      568.142    -393.303     167.907
  O      567.835    -392.449     166.810
  P      567.065    -391.080     167.129
  C      568.159    -389.682     165.202
  O      567.968    -389.874     166.588
  C      569.005    -388.423     164.926
  O      568.476    -387.333     165.720
  C      570.474    -388.529     165.311
  O      571.206    -387.505     164.631
  C      570.430    -388.223     166.790
  O      571.718    -387.859     167.296
  C      569.348    -387.126     166.867
  N      568.556    -387.159     168.120
  C      568.154    -385.951     168.680
  O      568.413    -384.851     168.201
  N      567.461    -386.037     169.857
  C      567.100    -387.191     170.493
  O      566.555    -387.207     171.590
  C      567.429    -388.431     169.790
  C      568.135    -388.365     168.658
  O      567.158    -390.957     168.724
  O      565.653    -391.057     166.647
  H      571.597    -387.670     168.248
  H      566.295    -391.170     169.127
  H      567.218    -385.170     170.310
  H      567.099    -389.368     170.227
  H      568.410    -389.284     168.134
  H      569.791    -386.126     166.793
  H      570.104    -389.112     167.341
  H      570.927    -389.509     165.107
  H      568.897    -388.145     163.874
  H      567.189    -389.604     164.701
  H      568.660    -390.557     164.774
  P      571.730    -387.814     163.148
  C      570.976    -385.559     162.169
  O      570.807    -386.966     162.152
  O      571.911    -389.256     162.808
  O      573.128    -387.016     163.095
  H      573.675    -387.364     162.372
  H      570.734    -385.160     161.183
  H      572.004    -385.283     162.426
  H      570.294    -385.125     162.908
  H      568.652    -394.173     167.550
  H      567.236    -393.596     168.395
  H      568.769    -392.782     168.600

 3  4  5  6  7  8  9  10  11  12  13  23  28  29  30  31  32 0
 6-311+G(2d,p)
 ****
 33  34 0
 6-311+G(2d,p)
 ****
 1  2  14  15  16  17  18  19  20  21  22  24  25  26  27 0
 3-21G
 ****
 35  36  37  38  39  40  41  42  43  44  45 0
 3-21G
 ****


