%nproc=1
%NoSave
%Mem=1900MB
#P OB98/GEN NMR

erre ene a

0 1
  C      -82.617    -926.174    -126.219
  O      -81.613    -925.318    -125.694
  H      -83.502    -925.569    -126.453
  H      -82.884    -926.935    -125.484
  H      -82.261    -926.643    -127.145
  P      -80.222    -926.003    -125.286
  C      -81.321    -926.899    -123.104
  O      -80.593    -927.218    -124.286
  C      -81.733    -928.167    -122.366
  O      -80.528    -928.862    -121.911
  C      -82.609    -927.935    -121.132
  O      -83.589    -928.975    -121.046
  C      -81.642    -928.067    -119.970
  O      -82.283    -928.388    -118.749
  C      -80.716    -929.158    -120.512
  N      -78.423    -930.988    -116.404
  C      -79.717    -931.170    -116.872
  N      -80.523    -931.953    -116.134
  N      -80.178    -930.628    -117.981
  C      -79.251    -929.882    -118.634
  C      -77.948    -929.613    -118.268
  C      -77.450    -930.208    -117.040
  O      -76.328    -930.069    -116.573
  N      -77.338    -928.784    -119.188
  C      -78.271    -928.546    -120.107
  N      -79.451    -929.197    -119.795
  O      -79.552    -924.920    -124.311
  O      -79.334    -926.380    -126.421
  H      -81.623    -928.327    -118.031
  H      -78.578    -924.963    -124.366
  H      -78.138    -931.421    -115.549
  H      -78.163    -927.929    -120.980
  H      -81.146    -930.163    -120.426
  H      -81.089    -927.128    -119.836
  H      -80.239    -932.439    -115.286
  H      -83.113    -926.959    -121.151
  H      -81.481    -932.108    -116.460
  H      -82.221    -928.848    -123.078
  H      -82.220    -926.328    -123.373
  H      -80.700    -926.275    -122.444
  P      -84.981    -928.750    -121.798
  C      -86.297    -928.593    -119.554
  O      -86.001    -927.989    -120.797
  O      -85.592    -930.252    -121.883
  O      -84.850    -928.159    -123.165
  H      -85.547    -930.579    -122.787
  H      -86.980    -927.974    -119.010
  H      -85.395    -928.710    -118.990
  H      -86.740    -929.553    -119.720

 6  7  8  9  10  11  12  13  14  15  26  29  33  34 0
 6-311+G(2d,p)
 ****
 36  38  39  40  41 0
 6-311+G(2d,p)
 ****
 1  2  3  4  5  16  17  18  19  20  21  22  23  24  25 0
 3-21G
 ****
 27  28  30  31  32  35  37  42  43  44  45  46  47 0
 3-21G
 ****
 48  49 0
 3-21G
 ****


