%nproc=1
%NoSave
%Mem=1900MB
#P OB98/GEN NMR

erre ene a

0 1
  C      969.976     520.616     -97.935
  O      970.234     520.237     -96.578
  P      970.793     521.336     -95.554
  C      972.325     520.100     -93.879
  O      971.019     520.622     -94.130
  C      972.312     519.176     -92.666
  O      971.911     519.866     -91.471
  C      971.325     518.020     -92.798
  O      971.843     517.033     -93.699
  C      971.183     517.567     -91.367
  O      972.286     516.695     -90.977
  C      971.287     518.893     -90.599
  N      970.002     519.377     -90.107
  C      969.446     518.656     -89.030
  O      970.036     517.666     -88.568
  N      968.240     519.077     -88.499
  C      967.646     520.116     -89.011
  N      966.464     520.481     -88.455
  C      968.198     520.877     -90.141
  C      969.365     520.449     -90.645
  O      970.032     522.621     -95.511
  O      972.306     521.572     -96.064
  H      972.003     516.241     -90.152
  H      972.560     522.489     -95.850
  H      967.659     521.751     -90.537
  H      969.825     520.966     -91.477
  H      971.956     518.793     -89.719
  H      970.270     517.004     -91.184
  H      970.358     518.391     -93.167
  H      973.323     518.793     -92.518
  H      966.112     519.933     -87.670
  H      973.022     520.916     -93.712
  H      965.948     521.305     -88.741
  H      972.661     519.576     -94.786
  P      971.043     516.826     -95.088
  C      971.087     514.289     -95.606
  O      971.686     515.541     -95.832
  O      971.573     518.059     -95.979
  O      969.546     516.830     -94.973
  H      970.853     518.365     -96.562
  H      971.413     513.606     -96.394
  H      969.999     514.341     -95.614
  H      971.419     513.891     -94.638
  H      969.610     519.770     -98.478
  H      970.881     520.965     -98.386
  H      969.244     521.396     -97.954

 3  4  5  6  7  8  9  10  11  12  13  23  27  28  29  30  32 0
 6-311+G(2d,p)
 ****
 34  35 0
 6-311+G(2d,p)
 ****
 1  2  14  15  16  17  18  19  20  21  22  24  25  26 0
 3-21G
 ****
 31  33  36  37  38  39  40  41  42  43  44  45  46 0
 3-21G
 ****


