%nproc=1
%NoSave
%Mem=1900MB
#P OB98/GEN NMR

erre ene a

0 1
  C      -52.371      12.072     241.270
  O      -52.348      12.459     242.650
  P      -51.511      11.667     243.764
  C      -52.841      12.903     245.599
  O      -51.558      12.483     245.143
  C      -52.754      13.625     246.945
  O      -52.324      12.721     247.982
  C      -51.766      14.786     246.985
  O      -52.291      15.926     246.324
  C      -51.569      14.953     248.489
  O      -52.632      15.731     249.067
  C      -51.631      13.492     248.982
  N      -50.310      12.944     249.261
  C      -49.765      13.234     250.513
  O      -50.363      13.972     251.300
  N      -48.537      12.705     250.838
  C      -47.885      12.008     249.959
  N      -46.679      11.504     250.337
  C      -48.385      11.752     248.595
  C      -49.593      12.243     248.320
  O      -50.132      11.285     243.330
  O      -52.378      10.356     244.080
  H      -52.481      15.735     250.031
  H      -51.776       9.630     244.333
  H      -47.797      11.191     247.884
  H      -50.041      12.093     247.344
  H      -52.238      13.422     249.892
  H      -50.630      15.457     248.737
  H      -50.817      14.481     246.527
  H      -53.764      13.977     247.204
  H      -46.368      11.690     251.281
  H      -53.474      12.013     245.707
  H      -46.094      10.947     249.733
  H      -53.287      13.559     244.843
  P      -51.723      16.337     244.886
  C      -52.790      18.626     245.351
  O      -52.550      17.619     244.388
  O      -51.611      15.230     243.893
  O      -50.279      16.960     245.209
  H      -49.684      16.782     244.458
  H      -52.980      19.568     244.832
  H      -51.929      18.752     246.013
  H      -53.671      18.362     245.943
  H      -52.994      12.746     240.721
  H      -52.759      11.078     241.185
  H      -51.377      12.102     240.874

 3  4  5  6  7  8  9  10  11  12  13  23  27  28  29  30  32 0
 6-311+G(2d,p)
 ****
 34  35 0
 6-311+G(2d,p)
 ****
 1  2  14  15  16  17  18  19  20  21  22  24  25  26 0
 3-21G
 ****
 31  33  36  37  38  39  40  41  42  43  44  45  46 0
 3-21G
 ****


