%nproc=1
%NoSave
%Mem=1900MB
#P OB98/GEN NMR

erre ene a

0 1
  C       55.618     -91.782    -311.175
  O       54.960     -92.509    -312.197
  H       55.622     -90.725    -311.450
  H       56.650     -92.126    -311.070
  H       55.082     -91.904    -310.231
  P       54.876     -94.100    -312.007
  C       56.812     -94.767    -313.580
  O       55.396     -94.695    -313.410
  C       57.200     -94.276    -314.981
  O       57.223     -92.824    -314.970
  C       58.579     -94.760    -315.431
  O       58.542     -95.057    -316.831
  C       59.479     -93.558    -315.188
  O       60.630     -93.559    -316.036
  C       58.516     -92.395    -315.446
  N       61.461     -88.240    -315.762
  C       61.139     -89.187    -316.664
  N       60.328     -90.265    -316.500
  C       59.791     -90.263    -315.264
  C       60.028     -89.368    -314.239
  C       60.922     -88.309    -314.520
  N       61.273     -87.352    -313.600
  N       59.331     -89.732    -313.098
  C       58.672     -90.826    -313.449
  N       58.938     -91.197    -314.739
  O       53.565     -94.629    -311.537
  O       56.116     -94.377    -311.034
  H       61.112     -92.717    -315.883
  H       56.908     -93.877    -311.315
  H       61.595     -89.086    -317.648
  H       58.007     -91.389    -312.798
  H       58.431     -92.135    -316.507
  H       59.822     -93.559    -314.149
  H       58.919     -95.634    -314.875
  H       56.423     -94.573    -315.694
  H       57.160     -95.797    -313.451
  H       61.907     -86.621    -313.889
  H       60.862     -87.373    -312.675
  H       57.275     -94.141    -312.817
  P       58.625     -96.593    -317.284
  C       60.184     -96.228    -319.314
  O       58.890     -96.644    -318.879
  O       57.530     -97.480    -316.795
  O       60.044     -97.052    -316.692
  H       59.970     -97.977    -316.381
  H       60.243     -96.303    -320.380
  H       60.928     -96.855    -318.870
  H       60.350     -95.213    -319.018

 6  7  8  9  10  11  12  13  14  15  25  28  32  33  34  35 0
 6-311+G(2d,p)
 ****
 36  39  40 0
 6-311+G(2d,p)
 ****
 1  2  3  4  5  16  17  18  19  20  21  22  23  24 0
 3-21G
 ****
 26  27  29  30  31  37  38  41  42  43  44  45  46  47 0
 3-21G
 ****
 48 0
 3-21G
 ****


