%nproc=1
%NoSave
%Mem=1900MB
#P OB98/GEN NMR

erre ene a

0 1
  C      670.292     -32.407     445.931
  O      670.061     -31.364     446.851
  H      670.043     -33.360     446.414
  H      671.343     -32.430     445.639
  H      669.659     -32.293     445.045
  P      670.187     -29.849     446.343
  C      672.224     -28.555     447.250
  O      671.750     -29.499     446.294
  C      672.929     -27.398     446.532
  O      673.874     -27.924     445.578
  C      671.990     -26.506     445.737
  O      671.256     -25.641     446.581
  C      672.976     -25.812     444.810
  O      673.620     -24.716     445.466
  C      673.989     -26.946     444.518
  N      673.768     -27.553     443.206
  C      674.453     -26.982     442.138
  O      675.221     -26.029     442.253
  N      674.184     -27.519     440.906
  C      673.217     -28.438     440.632
  O      672.838     -28.698     439.494
  C      672.571     -29.052     441.802
  C      672.867     -28.578     443.019
  O      669.340     -28.853     447.061
  O      669.796     -29.939     444.791
  H      668.876     -29.625     444.673
  H      674.215     -24.317     444.805
  H      674.646     -27.076     440.120
  H      671.846     -29.838     441.633
  H      672.373     -28.989     443.899
  H      675.016     -26.556     444.552
  H      672.484     -25.431     443.923
  H      671.312     -27.120     445.138
  H      673.484     -26.819     447.284
  H      672.934     -29.055     447.917
  H      671.379     -28.184     447.838
  P      669.740     -25.253     446.219
  C      670.530     -23.138     444.994
  O      669.759     -24.330     444.907
  O      668.935     -24.711     447.354
  O      669.112     -26.623     445.673
  H      668.268     -26.789     446.130
  H      670.470     -22.606     444.068
  H      671.551     -23.387     445.196
  H      670.150     -22.524     445.783

 6  7  8  9  10  11  12  13  14  15  16  27  31  32  33  34  35 0
 6-311+G(2d,p)
 ****
 36  37 0
 6-311+G(2d,p)
 ****
 1  2  3  4  5  17  18  19  20  21  22  23  24  25 0
 3-21G
 ****
 26  28  29  30  38  39  40  41  42  43  44  45 0
 3-21G
 ****


