%nproc=1
%NoSave
%Mem=1900MB
#P OB98/GEN NMR

erre ene a

0 1
  C     1306.169    -702.649     762.488
  O     1306.179    -703.837     763.253
  H     1305.941    -702.905     761.449
  H     1307.154    -702.165     762.520
  H     1305.405    -701.969     762.862
  P     1306.554    -703.695     764.806
  C     1304.239    -704.616     765.437
  O     1305.138    -703.524     765.547
  C     1302.944    -704.306     766.198
  O     1303.289    -703.783     767.507
  C     1302.049    -703.271     765.508
  O     1300.673    -703.610     765.739
  C     1302.347    -701.993     766.253
  O     1301.306    -701.029     766.154
  C     1302.611    -702.519     767.663
  N     1302.785    -697.766     769.494
  C     1301.792    -698.483     768.903
  N     1301.828    -699.747     768.463
  C     1303.021    -700.322     768.751
  C     1304.117    -699.727     769.342
  C     1303.970    -698.385     769.714
  N     1304.982    -697.637     770.279
  N     1305.170    -700.626     769.406
  C     1304.698    -701.750     768.874
  N     1303.421    -701.599     768.436
  O     1307.567    -702.650     765.135
  O     1306.968    -705.194     765.195
  H     1301.252    -700.745     765.225
  H     1306.332    -705.839     764.846
  H     1300.852    -697.960     768.747
  H     1305.266    -702.667     768.755
  H     1301.675    -702.695     768.225
  H     1303.267    -701.537     765.835
  H     1302.244    -703.185     764.438
  H     1302.410    -705.256     766.370
  H     1304.683    -705.524     765.826
  H     1304.777    -696.677     770.517
  H     1305.871    -698.064     770.475
  H     1304.017    -704.781     764.376
  P     1299.828    -704.231     764.503
  C     1299.479    -706.364     765.928
  O     1299.819    -705.839     764.641
  O     1300.177    -703.733     763.162
  O     1298.313    -703.859     764.896
  H     1297.861    -703.559     764.092
  H     1299.507    -707.433     765.896
  H     1298.495    -706.041     766.197
  H     1300.181    -706.011     766.654

 6  7  8  9  10  11  12  13  14  15  25  28  32  33  34  35 0
 6-311+G(2d,p)
 ****
 36  39  40 0
 6-311+G(2d,p)
 ****
 1  2  3  4  5  16  17  18  19  20  21  22  23  24 0
 3-21G
 ****
 26  27  29  30  31  37  38  41  42  43  44  45  46  47 0
 3-21G
 ****
 48 0
 3-21G
 ****


