%nproc=1
%NoSave
%Mem=1900MB
#P OB98/GEN NMR

erre ene a

0 1
  C      678.694     173.800      59.443
  O      678.808     174.921      58.583
  H      679.014     174.092      60.445
  H      679.346     172.995      59.084
  H      677.659     173.453      59.481
  P      678.168     174.769      57.122
  C      680.463     174.735      55.850
  O      679.221     175.391      56.077
  C      681.554     175.765      55.552
  O      681.217     176.547      54.388
  C      681.736     176.803      56.641
  O      682.379     176.283      57.793
  C      682.580     177.839      55.906
  O      683.973     177.510      55.938
  C      682.020     177.746      54.467
  N      681.275     178.942      54.099
  C      682.044     179.992      53.580
  O      683.259     179.855      53.443
  N      681.418     181.174      53.275
  C      680.143     181.305      53.494
  N      679.590     182.512      53.193
  C      679.296     180.227      54.038
  C      679.922     179.079      54.320
  O      676.992     175.852      57.141
  O      677.725     173.391      56.777
  H      684.211     177.404      56.882
  H      677.270     176.725      57.458
  H      678.242     180.383      54.191
  H      679.378     178.229      54.727
  H      682.844     177.624      53.746
  H      682.476     178.831      56.360
  H      680.773     177.267      56.898
  H      682.488     175.227      55.352
  H      680.213     183.244      52.869
  H      680.380     174.024      55.020
  H      678.629     182.752      53.394
  H      680.713     174.164      56.749
  P      681.961     176.764      59.263
  C      684.254     177.699      59.948
  O      683.281     176.685      60.174
  O      680.773     176.073      59.856
  O      681.763     178.345      59.090
  H      682.558     178.823      58.781
  H      685.085     177.549      60.605
  H      683.819     178.659      60.136
  H      684.589     177.652      58.933

 6  7  8  9  10  11  12  13  14  15  16  26  30  31  32  33  35 0
 6-311+G(2d,p)
 ****
 37  38 0
 6-311+G(2d,p)
 ****
 1  2  3  4  5  17  18  19  20  21  22  23  24  25 0
 3-21G
 ****
 27  28  29  34  36  39  40  41  42  43  44  45  46 0
 3-21G
 ****


