%nproc=1
%NoSave
%Mem=1900MB
#P OB98/GEN NMR

erre ene a

0 1
  C     -217.852     134.658     398.887
  O     -218.279     133.408     399.400
  P     -217.198     132.508     400.169
  C     -217.315     130.601     401.942
  O     -217.987     131.662     401.279
  C     -218.039     130.272     403.252
  O     -217.802     131.306     404.232
  C     -219.553     130.185     403.102
  O     -219.948     128.944     402.544
  C     -220.012     130.374     404.543
  O     -219.955     129.137     405.271
  C     -218.967     131.373     405.084
  N     -219.489     132.732     405.184
  C     -220.654     132.880     405.929
  O     -221.233     131.936     406.459
  N     -221.153     134.151     406.014
  C     -220.647     135.258     405.391
  O     -221.169     136.361     405.460
  C     -219.429     135.030     404.594
  C     -218.922     133.800     404.520
  O     -216.358     133.568     401.026
  O     -216.323     131.694     399.276
  H     -220.735     128.616     404.998
  H     -215.419     133.289     401.070
  H     -221.980     134.289     406.571
  H     -218.995     135.888     404.084
  H     -218.034     133.613     403.924
  H     -218.630     131.059     406.078
  H     -221.044     130.730     404.604
  H     -219.919     131.020     402.499
  H     -217.636     129.329     403.643
  H     -216.285     130.902     402.158
  H     -217.288     129.724     401.287
  P     -221.497     128.783     402.153
  C     -222.697     127.808     400.046
  O     -221.498     127.969     400.769
  O     -221.863     130.290     401.752
  O     -222.322     128.214     403.258
  H     -221.109     130.756     401.355
  H     -223.334     128.693     400.124
  H     -223.234     126.934     400.422
  H     -222.448     127.640     398.993
  H     -218.673     135.144     398.403
  H     -217.063     134.503     398.181
  H     -217.497     135.270     399.689

 3  4  5  6  7  8  9  10  11  12  13  23  28  29  30  31  32 0
 6-311+G(2d,p)
 ****
 33  34 0
 6-311+G(2d,p)
 ****
 1  2  14  15  16  17  18  19  20  21  22  24  25  26 0
 3-21G
 ****
 27  35  36  37  38  39  40  41  42  43  44  45 0
 3-21G
 ****


