%nproc=1
%NoSave
%Mem=1900MB
#P OB98/GEN NMR

erre ene a

0 1
  C        9.754     249.042      -4.511
  O        9.125     249.156      -5.770
  H        9.477     248.081      -4.069
  H        9.426     249.843      -3.841
  H       10.842     249.072      -4.626
  P        9.281     250.536      -6.577
  C        8.810     252.996      -5.904
  O        8.552     251.624      -5.642
  C        8.133     253.872      -4.851
  O        8.688     253.627      -3.540
  C        8.297     255.375      -5.064
  O        7.495     255.884      -6.117
  C        7.857     255.886      -3.702
  O        6.422     255.818      -3.602
  C        8.526     254.848      -2.763
  N        9.817     255.300      -2.244
  C        9.785     256.226      -1.190
  O        8.707     256.626      -0.746
  N       10.970     256.707      -0.696
  C       12.095     256.311      -1.214
  N       13.239     256.859      -0.714
  C       12.177     255.327      -2.309
  C       11.015     254.871      -2.773
  O        8.839     250.522      -8.004
  O       10.822     250.935      -6.393
  H        6.183     254.872      -3.622
  H       10.971     251.779      -6.885
  H       13.136     255.042      -2.707
  H       10.993     254.154      -3.590
  H        7.867     254.609      -1.920
  H        8.149     256.923      -3.514
  H        9.351     255.635      -5.213
  H        7.073     253.582      -4.812
  H       13.142     257.562       0.009
  H        8.440     253.229      -6.906
  H       14.110     256.821      -1.235
  H        9.890     253.189      -5.869
  P        7.837     257.352      -6.677
  C        7.304     259.699      -5.672
  O        7.709     258.361      -5.435
  O        6.558     257.694      -7.574
  O        9.122     257.476      -7.437
  H        6.714     257.464      -8.514
  H        7.271     260.231      -4.744
  H        6.333     259.703      -6.121
  H        8.003     260.172      -6.330

 6  7  8  9  10  11  12  13  14  15  16  26  30  31  32  33  35 0
 6-311+G(2d,p)
 ****
 37  38 0
 6-311+G(2d,p)
 ****
 1  2  3  4  5  17  18  19  20  21  22  23  24  25 0
 3-21G
 ****
 27  28  29  34  36  39  40  41  42  43  44  45  46 0
 3-21G
 ****


