%nproc=1
%NoSave
%Mem=1900MB
#P OB98/GEN NMR

erre ene a

0 1
  C      364.910    -231.346     343.360
  O      366.138    -230.940     343.933
  P      366.872    -231.974     344.930
  C      366.376    -230.551     347.051
  O      366.189    -231.794     346.377
  C      366.681    -230.778     348.531
  O      366.929    -229.490     349.160
  C      365.555    -231.466     349.327
  O      366.186    -232.291     350.309
  C      364.853    -230.283     349.968
  O      364.012    -230.624     351.058
  C      366.058    -229.408     350.305
  N      367.016    -225.284     353.193
  C      367.615    -226.502     353.127
  N      367.307    -227.542     352.326
  C      366.271    -227.237     351.524
  C      365.557    -226.058     351.492
  C      365.969    -225.046     352.379
  N      365.343    -223.811     352.450
  N      364.541    -226.117     350.556
  C      364.648    -227.323     350.032
  N      365.690    -228.028     350.574
  O      368.322    -231.323     345.118
  O      366.948    -233.385     344.432
  H      363.415    -231.358     350.802
  H      369.012    -232.013     345.153
  H      368.448    -226.659     353.807
  H      363.986    -227.731     349.281
  H      366.607    -229.778     351.176
  H      364.222    -229.792     349.219
  H      364.901    -232.087     348.705
  H      367.604    -231.365     348.610
  H      365.447    -229.974     346.978
  H      365.583    -223.242     353.249
  H      364.452    -223.722     351.992
  H      367.172    -229.990     346.560
  P      365.612    -233.770     350.567
  C      364.624    -233.034     352.829
  O      364.351    -233.524     351.542
  O      366.694    -234.342     351.601
  O      365.397    -234.610     349.363
  H      366.847    -233.725     352.343
  H      363.687    -232.820     353.342
  H      365.216    -232.110     352.775
  H      365.180    -233.790     353.407
  H      364.538    -230.569     342.725
  H      364.201    -231.541     344.137
  H      365.062    -232.235     342.784

 3  4  5  6  7  8  9  10  11  12  22  25  29  30  31  32 0
 6-311+G(2d,p)
 ****
 33  36  37 0
 6-311+G(2d,p)
 ****
 1  2  13  14  15  16  17  18  19  20  21  23  24  26 0
 3-21G
 ****
 27  28  34  35  38  39  40  41  42  43  44  45  46  47  48 0
 3-21G
 ****


