%nproc=1
%NoSave
%Mem=1900MB
#P OB98/GEN NMR

erre ene a

0 1
  C      379.840     -99.592    -111.092
  O      380.609     -98.873    -110.152
  H      379.269     -98.877    -111.693
  H      379.138    -100.259    -110.584
  H      380.487    -100.167    -111.757
  P      381.493     -99.691    -109.093
  C      379.614    -100.971    -107.868
  O      380.702    -101.054    -108.785
  C      379.511    -102.266    -107.055
  O      379.292    -103.357    -107.990
  C      380.788    -102.564    -106.256
  O      380.544    -102.798    -104.875
  C      381.447    -103.683    -107.054
  O      382.291    -104.529    -106.297
  C      380.257    -104.391    -107.710
  N      380.595    -105.119    -108.932
  C      381.484    -106.184    -108.816
  O      381.984    -106.577    -107.763
  N      381.788    -106.825    -109.987
  C      381.324    -106.511    -111.228
  O      381.629    -107.129    -112.239
  C      380.405    -105.360    -111.290
  C      380.091    -104.727    -110.155
  O      381.921     -98.929    -107.884
  O      382.753    -100.194    -109.945
  H      382.652    -105.209    -106.898
  H      383.526     -99.633    -109.747
  H      382.421    -107.607    -109.910
  H      380.022    -105.074    -112.258
  H      379.418    -103.875    -110.163
  H      379.801    -105.101    -107.014
  H      382.065    -103.227    -107.837
  H      381.456    -101.696    -106.249
  H      378.629    -102.208    -106.406
  H      378.698    -100.811    -108.450
  H      379.765    -100.120    -107.195
  P      381.075    -101.873    -103.686
  C      383.272    -103.165    -103.058
  O      382.666    -102.008    -103.627
  O      380.340    -101.985    -102.396
  O      380.842    -100.376    -104.251
  H      380.644     -99.813    -103.475
  H      384.337    -103.072    -103.109
  H      382.963    -104.033    -103.602
  H      382.971    -103.259    -102.036

 6  7  8  9  10  11  12  13  14  15  16  26  31  32  33  34  35 0
 6-311+G(2d,p)
 ****
 36  37 0
 6-311+G(2d,p)
 ****
 1  2  3  4  5  17  18  19  20  21  22  23  24  25 0
 3-21G
 ****
 27  28  29  30  38  39  40  41  42  43  44  45 0
 3-21G
 ****


