%nproc=1
%NoSave
%Mem=1900MB
#P OB98/GEN NMR

erre ene a

0 1
  C      266.530     412.344     301.657
  O      266.386     411.775     302.948
  P      265.178     410.739     303.170
  C      266.290     410.025     305.416
  O      265.106     410.434     304.745
  C      266.356     410.667     306.796
  O      266.883     412.009     306.693
  C      265.021     410.803     307.509
  O      264.579     409.554     308.034
  C      265.369     411.850     308.564
  O      266.063     411.238     309.657
  C      266.312     412.780     307.788
  N      265.341     417.769     308.449
  C      266.027     416.881     309.193
  N      266.230     415.565     308.967
  C      265.625     415.192     307.811
  C      264.875     415.984     306.969
  C      264.743     417.337     307.313
  N      264.037     418.251     306.550
  N      264.412     415.245     305.903
  C      264.875     414.032     306.091
  N      265.628     413.950     307.241
  O      265.745     409.370     302.550
  O      263.873     411.133     302.535
  H      266.158     411.917     310.354
  H      265.035     408.847     302.140
  H      266.494     417.269     310.108
  H      264.696     413.178     305.449
  H      267.141     413.152     308.401
  H      264.479     412.351     308.972
  H      264.255     411.207     306.814
  H      267.066     410.079     307.412
  H      267.160     410.326     304.836
  H      263.866     419.147     306.944
  H      263.486     417.887     305.776
  H      266.294     408.930     305.492
  P      263.057     409.133     307.773
  C      263.573     407.487     309.671
  O      262.630     408.385     309.131
  O      263.216     407.925     306.735
  O      262.160     410.253     307.341
  H      263.887     407.278     307.035
  H      263.189     407.072     310.621
  H      264.535     407.989     309.869
  H      263.742     406.644     308.978
  H      267.368     413.010     301.652
  H      265.642     412.886     301.405
  H      266.689     411.566     300.940

 3  4  5  6  7  8  9  10  11  12  22  25  29  30  31  32 0
 6-311+G(2d,p)
 ****
 33  36  37 0
 6-311+G(2d,p)
 ****
 1  2  13  14  15  16  17  18  19  20  21  23  24  26 0
 3-21G
 ****
 27  28  34  35  38  39  40  41  42  43  44  45  46  47  48 0
 3-21G
 ****


