%nproc=1
%NoSave
%Mem=1900MB
#P OB98/GEN NMR

erre ene a

0 1
  C     -156.589    -506.697     493.069
  O     -156.876    -507.137     491.757
  H     -155.956    -505.809     493.011
  H     -156.061    -507.468     493.635
  H     -157.516    -506.427     493.583
  P     -157.562    -508.578     491.575
  C     -156.638    -510.868     490.822
  O     -156.340    -509.620     491.434
  C     -155.440    -511.409     490.038
  O     -155.282    -510.699     488.792
  C     -154.108    -511.239     490.750
  O     -153.962    -512.013     491.921
  C     -153.117    -511.426     489.610
  O     -152.864    -512.798     489.328
  C     -153.885    -510.776     488.435
  N     -153.350    -509.464     488.075
  C     -152.973    -509.307     486.738
  O     -153.059    -510.204     485.896
  N     -152.466    -508.085     486.406
  C     -152.257    -507.043     487.265
  O     -151.778    -505.970     486.905
  C     -152.635    -507.281     488.671
  C     -153.163    -508.465     489.004
  O     -158.572    -508.681     490.470
  O     -158.152    -508.911     493.025
  H     -153.733    -513.235     489.235
  H     -158.805    -509.651     492.982
  H     -152.202    -507.939     485.443
  H     -152.472    -506.481     489.379
  H     -153.445    -508.663     490.033
  H     -153.834    -511.417     487.542
  H     -152.155    -510.951     489.821
  H     -154.018    -510.194     491.071
  H     -155.638    -512.462     489.800
  H     -157.478    -510.710     490.134
  H     -156.943    -511.589     491.591
  P     -153.162    -511.527     493.214
  C     -150.691    -511.719     494.037
  O     -151.591    -511.715     492.939
  O     -153.700    -511.957     494.539
  O     -153.336    -509.923     493.115
  H     -153.383    -509.578     494.035
  H     -149.692    -511.854     493.679
  H     -150.943    -512.519     494.701
  H     -150.760    -510.787     494.558

 6  7  8  9  10  11  12  13  14  15  16  26  31  32  33  34  35 0
 6-311+G(2d,p)
 ****
 36  37 0
 6-311+G(2d,p)
 ****
 1  2  3  4  5  17  18  19  20  21  22  23  24  25 0
 3-21G
 ****
 27  28  29  30  38  39  40  41  42  43  44  45 0
 3-21G
 ****


