%nproc=1
%NoSave
%Mem=1900MB
#P OB98/GEN NMR

erre ene a

0 1
  C       70.654    -129.595    -271.383
  O       70.592    -128.253    -270.910
  P       70.916    -127.988    -269.352
  C       68.569    -128.504    -268.387
  O       69.541    -127.518    -268.662
  C       67.229    -127.869    -267.982
  O       66.204    -128.905    -267.977
  C       67.226    -127.221    -266.587
  O       66.339    -126.096    -266.650
  C       66.614    -128.292    -265.704
  O       66.079    -127.753    -264.497
  C       65.578    -128.878    -266.664
  N       62.566    -131.607    -263.547
  C       62.724    -130.275    -263.705
  N       63.553    -129.618    -264.558
  C       64.257    -130.494    -265.298
  C       64.221    -131.875    -265.228
  C       63.328    -132.444    -264.299
  N       63.152    -133.800    -264.147
  N       65.112    -132.434    -266.136
  C       65.673    -131.403    -266.743
  N       65.160    -130.212    -266.278
  O       71.790    -126.648    -269.398
  O       71.642    -129.089    -268.655
  H       65.544    -128.451    -264.067
  H       72.711    -126.846    -269.143
  H       62.107    -129.639    -263.060
  H       66.437    -131.463    -267.493
  H       64.675    -128.250    -266.735
  H       67.375    -129.035    -265.446
  H       68.218    -126.906    -266.245
  H       66.949    -127.145    -268.750
  H       68.923    -129.127    -267.552
  H       62.403    -134.123    -263.564
  H       63.575    -134.430    -264.835
  H       68.431    -129.155    -269.260
  P       67.009    -124.640    -266.686
  C       67.001    -124.253    -264.118
  O       66.504    -123.855    -265.384
  O       66.249    -123.913    -267.895
  O       68.498    -124.659    -266.902
  H       66.832    -123.235    -268.291
  H       67.076    -123.381    -263.465
  H       67.991    -124.721    -264.190
  H       66.309    -124.979    -263.674
  H       70.417    -129.617    -272.426
  H       69.951    -130.196    -270.845
  H       71.641    -129.981    -271.233

 3  4  5  6  7  8  9  10  11  12  22  25  29  30  31  32 0
 6-311+G(2d,p)
 ****
 33  36  37 0
 6-311+G(2d,p)
 ****
 1  2  13  14  15  16  17  18  19  20  21  23  24  26 0
 3-21G
 ****
 27  28  34  35  38  39  40  41  42  43  44  45  46  47  48 0
 3-21G
 ****


