%nproc=1
%NoSave
%Mem=1900MB
#P OB98/GEN NMR

erre ene a

0 1
  C     -508.034     -11.337    -819.543
  O     -508.310     -12.606    -818.973
  P     -507.451     -13.140    -817.726
  C     -509.109     -14.985    -816.984
  O     -507.843     -14.703    -817.585
  C     -509.683     -16.284    -817.533
  O     -510.369     -16.046    -818.783
  C     -508.642     -17.359    -817.830
  O     -508.220     -17.994    -816.628
  C     -509.426     -18.269    -818.773
  O     -510.265     -19.180    -818.048
  C     -510.276     -17.250    -819.581
  N     -509.718     -16.980    -820.893
  C     -510.345     -17.631    -821.971
  O     -511.282     -18.407    -821.763
  N     -509.861     -17.429    -823.236
  C     -508.839     -16.676    -823.421
  N     -508.393     -16.515    -824.706
  C     -508.127     -15.984    -822.324
  C     -508.613     -16.177    -821.100
  O     -507.560     -12.333    -816.479
  O     -505.958     -13.213    -818.315
  H     -509.670     -19.855    -817.673
  H     -505.570     -12.302    -818.391
  H     -507.268     -15.355    -822.517
  H     -508.159     -15.733    -820.228
  H     -511.299     -17.617    -819.704
  H     -508.760     -18.871    -819.402
  H     -507.806     -16.918    -818.353
  H     -510.424     -16.664    -816.816
  H     -508.896     -17.031    -825.421
  H     -509.790     -14.156    -817.209
  H     -507.594     -15.974    -824.962
  H     -508.986     -15.046    -815.893
  P     -506.731     -18.537    -816.497
  C     -506.267     -17.954    -814.029
  O     -506.508     -19.000    -814.970
  O     -505.668     -17.660    -817.071
  O     -506.786     -19.941    -817.283
  H     -505.990     -20.011    -817.856
  H     -506.443     -18.336    -813.035
  H     -506.897     -17.092    -814.228
  H     -505.204     -17.650    -814.110
  H     -508.705     -11.158    -820.357
  H     -507.026     -11.319    -819.901
  H     -508.163     -10.577    -818.801

 3  4  5  6  7  8  9  10  11  12  13  23  27  28  29  30  32 0
 6-311+G(2d,p)
 ****
 34  35 0
 6-311+G(2d,p)
 ****
 1  2  14  15  16  17  18  19  20  21  22  24  25  26 0
 3-21G
 ****
 31  33  36  37  38  39  40  41  42  43  44  45  46 0
 3-21G
 ****


