%nproc=1
%NoSave
%Mem=1900MB
#P OB98/GEN NMR

erre ene a

0 1
  C       75.947      80.388     -62.329
  O       77.059      80.624     -63.169
  H       75.698      79.324     -62.369
  H       75.079      80.961     -62.666
  H       76.188      80.651     -61.295
  P       77.574      82.129     -63.349
  C       78.299      84.021     -61.738
  O       77.655      82.758     -61.876
  C       77.589      84.873     -60.688
  O       76.337      85.366     -61.207
  C       77.241      84.123     -59.408
  O       78.394      83.929     -58.614
  C       76.189      85.049     -58.820
  O       76.798      86.185     -58.188
  C       75.420      85.479     -60.093
  N       74.211      84.697     -60.336
  C       73.142      84.932     -59.464
  O       73.254      85.745     -58.548
  N       71.981      84.220     -59.647
  C       71.878      83.386     -60.633
  N       70.701      82.718     -60.763
  C       72.969      83.137     -61.595
  C       74.099      83.809     -61.383
  O       76.829      82.969     -64.340
  O       79.114      81.964     -63.755
  H       76.066      86.709     -57.806
  H       79.213      81.970     -64.726
  H       72.837      82.439     -62.410
  H       74.950      83.683     -62.044
  H       75.132      86.537     -60.027
  H       75.576      84.555     -58.066
  H       76.762      83.166     -59.647
  H       78.223      85.743     -60.474
  H       69.974      82.938     -60.090
  H       78.256      84.512     -62.715
  H       70.452      82.174     -61.576
  H       79.352      83.888     -61.465
  P       78.511      82.703     -57.587
  C       78.198      80.159     -57.784
  O       77.932      81.424     -58.368
  O       77.913      82.942     -56.242
  O       80.081      82.399     -57.542
  H       80.545      83.067     -56.979
  H       77.766      79.389     -58.389
  H       77.773      80.123     -56.803
  H       79.256      80.011     -57.720

 6  7  8  9  10  11  12  13  14  15  16  26  30  31  32  33  35 0
 6-311+G(2d,p)
 ****
 37  38 0
 6-311+G(2d,p)
 ****
 1  2  3  4  5  17  18  19  20  21  22  23  24  25 0
 3-21G
 ****
 27  28  29  34  36  39  40  41  42  43  44  45  46 0
 3-21G
 ****


