%nproc=1
%NoSave
%Mem=1900MB
#P OB98/GEN NMR

erre ene a

0 1
  C       13.536     -15.473     -53.841
  O       14.593     -14.580     -54.131
  H       13.519     -15.662     -52.765
  H       13.686     -16.422     -54.363
  H       12.581     -15.031     -54.139
  P       14.861     -14.249     -55.678
  C       15.459     -15.636     -57.793
  O       15.287     -15.624     -56.381
  C       16.248     -16.877     -58.202
  O       17.499     -16.923     -57.473
  C       15.547     -18.191     -57.884
  O       14.542     -18.518     -58.829
  C       16.717     -19.158     -57.924
  O       16.999     -19.595     -59.261
  C       17.873     -18.312     -57.359
  N       18.193     -18.683     -55.982
  C       18.975     -19.825     -55.833
  O       19.385     -20.493     -56.781
  N       19.243     -20.201     -54.544
  C       18.770     -19.590     -53.418
  O       19.002     -20.013     -52.292
  C       17.934     -18.399     -53.638
  C       17.683     -18.007     -54.891
  O       16.218     -13.402     -55.640
  O       13.759     -13.511     -56.363
  H       16.025     -12.462     -55.810
  H       17.715     -20.257     -59.183
  H       19.810     -21.024     -54.414
  H       17.542     -17.890     -52.766
  H       17.060     -17.139     -55.080
  H       18.777     -18.444     -57.967
  H       16.509     -20.047     -57.332
  H       15.138     -18.167     -56.866
  H       16.475     -16.810     -59.274
  H       16.013     -14.745     -58.104
  H       14.474     -15.622     -58.272
  P       13.190     -19.189     -58.282
  C       12.590     -21.621     -57.474
  O       13.521     -20.746     -58.093
  O       12.278     -19.122     -59.594
  O       12.634     -18.494     -57.086
  H       12.812     -19.131     -60.408
  H       12.996     -22.610     -57.444
  H       11.679     -21.627     -58.035
  H       12.394     -21.285     -56.477

 6  7  8  9  10  11  12  13  14  15  16  27  31  32  33  34  35 0
 6-311+G(2d,p)
 ****
 36  37 0
 6-311+G(2d,p)
 ****
 1  2  3  4  5  17  18  19  20  21  22  23  24  25 0
 3-21G
 ****
 26  28  29  30  38  39  40  41  42  43  44  45 0
 3-21G
 ****


