%nproc=1
%NoSave
%Mem=1900MB
#P OB98/GEN NMR

erre ene a

0 1
  C      -26.502       9.633     -75.269
  O      -26.401       8.830     -74.101
  P      -25.998       7.286     -74.294
  C      -23.994       7.474     -72.653
  O      -24.426       7.209     -73.983
  C      -23.915       6.181     -71.847
  O      -22.835       5.359     -72.331
  C      -23.648       6.377     -70.362
  O      -24.828       6.692     -69.642
  C      -23.144       4.997     -69.976
  O      -24.256       4.097     -69.817
  C      -22.317       4.603     -71.204
  N      -18.042       3.224     -68.762
  C      -19.320       2.806     -68.645
  N      -20.405       3.231     -69.324
  C      -20.077       4.217     -70.176
  C      -18.825       4.773     -70.375
  C      -17.767       4.228     -69.630
  N      -16.461       4.636     -69.772
  N      -18.882       5.766     -71.328
  C      -20.141       5.804     -71.705
  N      -20.902       4.880     -71.045
  O      -26.070       7.091     -75.881
  O      -26.861       6.313     -73.568
  H      -24.800       4.445     -69.085
  H      -26.206       6.148     -76.095
  H      -19.492       2.019     -67.916
  H      -20.544       6.473     -72.454
  H      -22.418       3.541     -71.452
  H      -22.594       4.994     -69.030
  H      -22.856       7.117     -70.194
  H      -24.853       5.631     -72.000
  H      -24.708       8.151     -72.174
  H      -15.742       4.075     -69.342
  H      -16.233       5.237     -70.556
  H      -23.016       7.964     -72.687
  P      -24.654       7.601     -68.329
  C      -24.443       9.803     -69.691
  O      -23.826       8.885     -68.810
  O      -23.607       6.770     -67.450
  O      -25.926       7.867     -67.598
  H      -23.714       6.981     -66.503
  H      -23.884      10.742     -69.667
  H      -25.476      10.005     -69.393
  H      -24.425       9.408     -70.710
  H      -26.775      10.630     -74.994
  H      -27.248       9.225     -75.919
  H      -25.559       9.648     -75.774

 3  4  5  6  7  8  9  10  11  12  22  25  29  30  31  32 0
 6-311+G(2d,p)
 ****
 33  36  37 0
 6-311+G(2d,p)
 ****
 1  2  13  14  15  16  17  18  19  20  21  23  24  26 0
 3-21G
 ****
 27  28  34  35  38  39  40  41  42  43  44  45  46  47  48 0
 3-21G
 ****


