%nproc=1
%NoSave
%Mem=1900MB
#P OB98/GEN NMR

erre ene a

0 1
  C      -12.722     -25.971     -18.100
  O      -12.005     -24.950     -17.438
  H      -12.472     -25.945     -19.164
  H      -13.798     -25.808     -17.988
  H      -12.451     -26.951     -17.697
  P      -12.200     -24.844     -15.850
  C      -14.080     -23.103     -16.291
  O      -13.689     -24.293     -15.617
  C      -15.103     -22.345     -15.449
  O      -16.268     -23.175     -15.246
  C      -14.614     -21.977     -14.052
  O      -13.779     -20.833     -14.067
  C      -15.934     -21.755     -13.326
  O      -16.448     -20.437     -13.556
  C      -16.853     -22.796     -13.980
  N      -20.226     -26.292     -12.441
  C      -20.315     -25.283     -13.334
  N      -19.359     -24.403     -13.703
  C      -18.212     -24.653     -13.050
  C      -17.974     -25.640     -12.109
  C      -19.047     -26.492     -11.807
  N      -18.968     -27.497     -10.872
  N      -16.683     -25.548     -11.627
  C      -16.149     -24.531     -12.273
  N      -17.034     -23.965     -13.145
  O      -11.269     -23.601     -15.458
  O      -11.848     -26.073     -15.081
  H      -17.226     -20.336     -12.974
  H      -10.394     -23.925     -15.175
  H      -21.283     -25.163     -13.813
  H      -15.138     -24.166     -12.138
  H      -17.850     -22.392     -14.193
  H      -15.819     -21.875     -12.248
  H      -14.097     -22.829     -13.595
  H      -15.415     -21.450     -16.001
  H      -14.530     -23.364     -17.255
  H      -13.193     -22.487     -16.466
  H      -19.786     -28.055     -10.689
  H      -18.127     -27.585     -10.317
  P      -12.743     -20.627     -12.865
  C      -14.156     -18.632     -11.981
  O      -13.513     -19.861     -11.684
  O      -11.732     -19.526     -13.436
  O      -12.033     -21.867     -12.435
  H      -10.912     -19.949     -13.754
  H      -14.620     -18.249     -11.096
  H      -14.900     -18.791     -12.734
  H      -13.433     -17.928     -12.337

 6  7  8  9  10  11  12  13  14  15  25  28  32  33  34  35 0
 6-311+G(2d,p)
 ****
 36  37  40 0
 6-311+G(2d,p)
 ****
 1  2  3  4  5  16  17  18  19  20  21  22  23  24 0
 3-21G
 ****
 26  27  29  30  31  38  39 41  42  43  44  45  46  47  48 0
 3-21G
 ****


