%nproc=1
%NoSave
%Mem=1900MB
#P OB98/GEN NMR

erre ene a

0 1
  C       48.028     -50.194     -27.637
  O       48.679     -49.292     -26.766
  H       47.519     -50.954     -27.038
  H       48.761     -50.689     -28.278
  H       47.284     -49.680     -28.252
  P       49.275     -47.931     -27.366
  C       51.553     -48.677     -28.317
  O       50.872     -48.039     -27.248
  C       52.158     -50.007     -27.858
  O       53.146     -49.732     -26.819
  C       51.130     -50.991     -27.262
  O       51.580     -52.316     -27.569
  C       51.269     -50.696     -25.781
  O       50.666     -51.686     -24.990
  C       52.789     -50.548     -25.685
  N       53.240     -49.950     -24.435
  C       53.370     -50.790     -23.334
  O       53.151     -51.999     -23.365
  N       53.760     -50.186     -22.168
  C       54.018     -48.858     -22.001
  O       54.385     -48.372     -20.938
  C       53.834     -48.016     -23.194
  C       53.461     -48.591     -24.338
  O       48.686     -46.672     -26.827
  O       49.024     -48.072     -28.941
  H       48.214     -47.588     -29.188
  H       50.781     -51.483     -24.037
  H       53.860     -50.780     -21.360
  H       54.010     -46.954     -23.089
  H       53.313     -48.002     -25.238
  H       53.282     -51.517     -25.817
  H       50.773     -49.752     -25.534
  H       50.121     -50.845     -27.657
  H       52.698     -50.461     -28.697
  H       52.348     -48.010     -28.664
  H       50.851     -48.852     -29.140
  P       50.808     -53.298     -28.577
  C       50.064     -55.412     -27.303
  O       51.055     -54.820     -28.131
  O       51.122     -53.045     -30.016
  O       49.250     -53.063     -28.293
  H       48.757     -53.136     -29.132
  H       50.343     -56.420     -27.077
  H       49.124     -55.408     -27.814
  H       49.978     -54.854     -26.394

 6  7  8  9  10  11  12  13  14  15  16  27  31  32  33  34  35 0
 6-311+G(2d,p)
 ****
 36  37 0
 6-311+G(2d,p)
 ****
 1  2  3  4  5  17  18  19  20  21  22  23  24  25 0
 3-21G
 ****
 26  28  29  30  38  39  40  41  42  43  44  45 0
 3-21G
 ****


