%nproc=1
%NoSave
%Mem=1900MB
#P OB98/GEN NMR

erre ene a

0 1
  C     -194.610    -410.923     431.199
  O     -193.349    -410.501     431.730
  P     -192.871    -409.006     431.409
  C     -192.315    -408.676     428.895
  O     -193.307    -408.637     429.908
  C     -192.678    -407.761     427.716
  O     -192.569    -406.361     428.097
  C     -191.784    -407.956     426.490
  O     -192.551    -407.659     425.319
  C     -190.737    -406.871     426.668
  O     -190.059    -406.587     425.447
  C     -191.603    -405.741     427.223
  N     -191.886    -401.541     429.998
  C     -192.887    -402.279     429.391
  N     -194.151    -401.847     429.581
  N     -192.666    -403.339     428.662
  C     -191.352    -403.669     428.590
  C     -190.273    -403.021     429.140
  C     -190.530    -401.833     429.921
  O     -189.683    -401.133     430.470
  N     -189.094    -403.651     428.820
  C     -189.467    -404.672     428.078
  N     -190.826    -404.749     427.936
  O     -191.275    -409.154     431.307
  O     -193.254    -408.010     432.453
  H     -189.421    -405.861     425.628
  H     -190.859    -408.746     432.084
  H     -192.113    -400.726     430.540
  H     -188.794    -405.386     427.613
  H     -192.148    -405.214     426.432
  H     -189.991    -407.193     427.409
  H     -194.396    -401.067     430.172
  H     -191.345    -408.953     426.395
  H     -194.909    -402.390     429.183
  H     -193.724    -407.944     427.444
  H     -192.189    -409.700     428.532
  H     -191.349    -408.397     429.332
  P     -193.313    -408.888     424.622
  C     -191.968    -408.882     422.402
  O     -192.266    -409.550     423.615
  O     -194.369    -408.174     423.651
  O     -193.978    -409.827     425.573
  H     -195.125    -408.762     423.483
  H     -190.993    -408.394     422.491
  H     -192.726    -408.130     422.153
  H     -191.930    -409.617     421.594
  H     -194.799    -411.935     431.491
  H     -194.587    -410.858     430.131
  H     -195.386    -410.292     431.578

 3  4  5  6  7  8  9  10  11  12  23  26  30  31 0
 6-311+G(2d,p)
 ****
 33  35  36  37  38 0
 6-311+G(2d,p)
 ****
 1  2  13  14  15  16  17  18  19  20  21  22  24  25 0
 3-21G
 ****
 27  28  29  32  34  39  40  41  42  43  44  45  46  47  48  49 0
 3-21G
 ****


