%nproc=1
%NoSave
%Mem=1900MB
#P OB98/GEN NMR

erre ene a

0 1
  C      268.412     -22.043    -121.361
  O      267.873     -21.816    -122.660
  P      266.991     -20.502    -122.904
  C      268.458     -19.509    -124.869
  O      267.884     -19.370    -123.589
  C      269.576     -18.467    -125.039
  O      270.545     -18.594    -123.976
  C      270.335     -18.607    -126.355
  O      269.703     -17.907    -127.411
  C      271.698     -18.052    -125.990
  O      271.663     -16.614    -125.968
  C      271.878     -18.612    -124.560
  N      272.442     -19.971    -124.409
  C      273.748     -20.133    -123.953
  O      274.498     -19.206    -123.660
  N      274.184     -21.425    -123.827
  C      273.420     -22.549    -123.937
  O      273.851     -23.680    -123.754
  C      272.012     -22.318    -124.273
  C      271.598     -21.069    -124.502
  O      266.728     -19.942    -121.431
  O      265.715     -20.745    -123.647
  H      271.450     -16.317    -126.869
  H      265.778     -19.979    -121.218
  H      275.149     -21.560    -123.566
  H      271.357     -23.178    -124.325
  H      270.556     -20.888    -124.752
  H      272.507     -17.943    -123.961
  H      272.446     -18.325    -126.731
  H      270.460     -19.664    -126.609
  H      269.129     -17.467    -124.972
  H      267.706     -19.380    -125.650
  H      268.863     -20.520    -124.982
  P      268.887     -18.713    -128.527
  C      266.646     -17.924    -127.561
  O      267.460     -19.040    -127.867
  O      269.593     -19.871    -129.146
  O      268.518     -17.587    -129.608
  H      269.171     -17.584    -130.345
  H      265.654     -18.283    -127.272
  H      266.546     -17.271    -128.432
  H      267.079     -17.367    -126.726
  H      268.972     -22.955    -121.361
  H      267.614     -22.115    -120.651
  H      269.055     -21.230    -121.094

 3  4  5  6  7  8  9  10  11  12  13  23  28  29  30  31  32 0
 6-311+G(2d,p)
 ****
 33  34 0
 6-311+G(2d,p)
 ****
 1  2  14  15  16  17  18  19  20  21  22  24  25  26  27 0
 3-21G
 ****
 35  36  37  38  39  40  41  42  43  44  45 0
 3-21G
 ****


