%nproc=1
%NoSave
%Mem=1900MB
#P OB98/GEN NMR

erre ene a

0 1
  C       14.892     635.448    -243.505
  O       16.048     636.083    -244.004
  P       16.156     636.512    -245.543
  C       18.541     635.674    -245.978
  O       17.700     636.813    -245.871
  C       19.950     636.071    -246.420
  O       19.905     636.604    -247.766
  C       20.626     637.116    -245.523
  O       22.008     636.774    -245.430
  C       20.448     638.403    -246.304
  O       21.394     639.398    -245.934
  C       20.574     637.882    -247.742
  N       20.007     638.800    -248.715
  C       20.904     639.594    -249.434
  O       22.099     639.600    -249.141
  N       20.415     640.377    -250.457
  C       19.131     640.490    -250.615
  N       18.692     641.220    -251.686
  C       18.151     639.858    -249.710
  C       18.646     639.004    -248.823
  O       15.211     637.587    -245.973
  O       15.877     635.152    -246.352
  H       15.165     635.307    -247.001
  H       21.273     639.612    -244.985
  H       17.098     640.083    -249.807
  H       18.003     638.464    -248.139
  H       21.625     637.704    -247.995
  H       19.439     638.806    -246.128
  H       20.192     637.151    -244.515
  H       20.563     635.152    -246.456
  H       19.396     641.612    -252.299
  H       18.109     634.997    -246.721
  H       17.753     641.110    -252.064
  H       18.571     635.138    -245.023
  P       22.753     636.968    -244.017
  C       24.215     639.087    -244.359
  O       24.164     637.676    -244.299
  O       23.198     635.465    -243.669
  O       21.924     637.521    -242.899
  H       23.296     635.375    -242.700
  H       25.231     639.389    -244.626
  H       23.967     639.526    -243.382
  H       23.526     639.469    -245.122
  H       15.018     635.246    -242.462
  H       14.735     634.529    -244.030
  H       14.046     636.088    -243.644

 3  4  5  6  7  8  9  10  11  12  13  24  27  28  29  30  32 0
 6-311+G(2d,p)
 ****
 34  35 0
 6-311+G(2d,p)
 ****
 1  2  14  15  16  17  18  19  20  21  22  23  25  26 0
 3-21G
 ****
 31  33  36  37  38  39  40  41  42  43  44  45  46 0
 3-21G
 ****


