%nproc=1
%NoSave
%Mem=1900MB
#P OB98/GEN NMR

erre ene a

0 1
  C      514.037     375.549    -311.754
  O      513.233     375.824    -310.624
  H      513.413     375.089    -312.527
  H      514.824     374.843    -311.475
  H      514.478     376.470    -312.152
  P      513.857     376.769    -309.496
  C      513.969     375.348    -307.334
  O      513.239     376.298    -308.085
  C      513.034     374.264    -306.790
  O      512.128     374.873    -305.828
  C      512.176     373.577    -307.864
  O      512.059     372.194    -307.551
  C      510.822     374.257    -307.725
  O      509.750     373.435    -308.192
  C      510.785     374.537    -306.232
  N      505.929     375.677    -305.457
  C      506.540     374.451    -305.672
  N      505.733     373.368    -305.677
  N      507.835     374.302    -305.847
  C      508.512     375.474    -305.768
  C      508.032     376.747    -305.576
  C      506.596     376.896    -305.409
  O      505.998     377.960    -305.244
  N      509.039     377.670    -305.598
  C      510.138     376.960    -305.808
  N      509.865     375.615    -305.914
  O      513.145     378.176    -309.764
  O      515.348     376.899    -309.519
  H      508.908     373.845    -307.879
  H      513.811     378.838    -310.033
  H      504.938     375.734    -305.340
  H      511.136     377.366    -305.894
  H      510.459     373.661    -305.644
  H      510.815     375.193    -308.295
  H      504.739     373.402    -305.501
  H      512.591     373.688    -308.873
  H      506.159     372.457    -305.798
  H      513.630     373.533    -306.234
  H      514.469     375.847    -306.507
  H      514.733     374.884    -307.975
  P      513.233     371.227    -308.067
  C      511.736     369.225    -308.742
  O      512.749     369.694    -307.876
  O      514.373     371.407    -306.957
  O      513.735     371.566    -309.434
  H      515.116     371.913    -307.328
  H      511.512     368.205    -308.510
  H      512.073     369.295    -309.755
  H      510.856     369.821    -308.617

 6  7  8  9  10  11  12  13  14  15  26  29  33  34 0
 6-311+G(2d,p)
 ****
 36  38  39  40  41 0
 6-311+G(2d,p)
 ****
 1  2  3  4  5  16  17  18  19  20  21  22  23  24  25 0
 3-21G
 ****
 27  28  30  31  32  35  37  42  43  44  45  46  47 0
 3-21G
 ****
 48  49 0
 3-21G
 ****


