%nproc=1
%NoSave
%Mem=1900MB
#P OB98/GEN NMR

erre ene a

0 1
  C       46.055    -166.423    -514.011
  O       46.244    -166.164    -512.634
  H       46.296    -167.470    -514.208
  H       46.718    -165.791    -514.608
  H       45.014    -166.239    -514.290
  P       45.925    -164.674    -512.131
  C       43.323    -164.651    -512.169
  O       44.531    -164.258    -512.809
  C       42.309    -163.516    -512.239
  O       42.710    -162.442    -511.356
  C       42.194    -162.879    -513.619
  O       41.409    -163.656    -514.508
  C       41.566    -161.539    -513.272
  O       40.142    -161.642    -513.136
  C       42.209    -161.209    -511.919
  N       43.289    -156.280    -512.707
  C       42.117    -156.935    -512.546
  N       41.911    -158.251    -512.328
  C       43.085    -158.904    -512.250
  C       44.354    -158.375    -512.391
  C       44.437    -156.990    -512.628
  N       45.631    -156.328    -512.817
  N       45.311    -159.365    -512.288
  C       44.629    -160.474    -512.082
  N       43.282    -160.244    -512.048
  O       47.007    -163.790    -512.911
  O       46.000    -164.473    -510.655
  H       39.835    -162.189    -513.887
  H       47.751    -163.583    -512.312
  H       41.223    -156.319    -512.611
  H       45.062    -161.460    -511.961
  H       41.484    -160.796    -511.206
  H       41.772    -160.799    -514.049
  H       43.191    -162.705    -514.038
  H       41.337    -163.893    -511.900
  H       43.531    -164.887    -511.118
  H       42.935    -165.549    -512.663
  H       45.609    -155.351    -513.049
  H       46.485    -156.869    -512.872
  P       41.564    -163.376    -516.077
  C       42.862    -165.459    -516.968
  O       42.912    -164.099    -516.560
  O       41.918    -161.817    -516.156
  O       40.360    -163.714    -516.894
  H       41.511    -161.424    -516.954
  H       43.841    -165.781    -517.256
  H       42.195    -165.558    -517.799
  H       42.513    -166.062    -516.156

 6  7  8  9  10  11  12  13  14  15  25  28  32  33  34  35 0
 6-311+G(2d,p)
 ****
 36  37  40 0
 6-311+G(2d,p)
 ****
 1  2  3  4  5  16  17  18  19  20  21  22  23  24 0
 3-21G
 ****
 26  27  29  30  31  38  39 41  42  43  44  45  46  47  48 0
 3-21G
 ****


