%nproc=1
%NoSave
%Mem=1900MB
#P OB98/GEN NMR

erre ene a

0 1
  C       78.622      79.847    -163.231
  O       78.335      79.955    -161.842
  P       77.065      79.162    -161.267
  C       74.529      79.065    -161.807
  O       75.779      79.682    -162.080
  C       73.404      79.718    -162.609
  O       73.819      79.832    -163.998
  C       72.079      78.947    -162.591
  O       71.023      79.917    -162.656
  C       72.117      78.169    -163.895
  O       70.817      77.765    -164.320
  C       72.800      79.193    -164.803
  N       72.437      78.567    -169.868
  C       71.689      79.272    -168.995
  N       71.848      79.392    -167.659
  C       72.910      78.680    -167.242
  C       73.745      77.884    -168.010
  C       73.480      77.844    -169.391
  N       74.249      77.133    -170.285
  N       74.708      77.286    -167.223
  C       74.460      77.715    -165.999
  N       73.399      78.576    -165.969
  O       76.879      79.809    -159.814
  O       77.220      77.681    -161.186
  H       70.300      78.567    -164.519
  H       77.095      79.150    -159.125
  H       70.855      79.819    -169.423
  H       75.010      77.429    -165.115
  H       72.106      79.969    -165.149
  H       72.731      77.273    -163.775
  H       71.949      78.301    -161.720
  H       73.259      80.738    -162.234
  H       74.307      79.174    -160.742
  H       74.077      77.260    -171.270
  H       75.133      76.745    -169.970
  H       74.591      77.995    -162.041
  P       69.661      79.554    -161.888
  C       67.620      78.033    -162.380
  O       68.919      78.438    -162.764
  O       68.761      80.864    -162.100
  O       69.841      79.239    -160.440
  H       68.133      80.958    -161.358
  H       67.050      77.779    -163.278
  H       67.091      78.818    -161.831
  H       67.695      77.141    -161.744
  H       79.491      80.427    -163.462
  H       77.790      80.211    -163.797
  H       78.801      78.822    -163.480

 3  4  5  6  7  8  9  10  11  12  22  25  29  30  31  32 0
 6-311+G(2d,p)
 ****
 33  36  37 0
 6-311+G(2d,p)
 ****
 1  2  13  14  15  16  17  18  19  20  21  23  24  26 0
 3-21G
 ****
 27  28  34  35  38  39  40  41  42  43  44  45  46  47  48 0
 3-21G
 ****


