%nproc=1
%NoSave
%Mem=1900MB
#P OB98/GEN NMR

erre ene a

0 1
  C       34.860     -18.463     -19.971
  O       35.337     -17.800     -21.130
  P       34.743     -18.140     -22.583
  C       36.814     -19.625     -23.010
  O       35.396     -19.550     -22.977
  C       37.250     -21.018     -23.454
  O       37.006     -21.962     -22.392
  C       36.504     -21.557     -24.667
  O       36.973     -20.956     -25.864
  C       36.773     -23.050     -24.533
  O       38.086     -23.367     -25.021
  C       36.724     -23.244     -23.003
  N       35.449     -23.778     -22.539
  C       35.430     -25.131     -22.188
  O       36.446     -25.820     -22.260
  N       34.257     -25.673     -21.722
  C       33.192     -24.938     -21.638
  N       32.077     -25.510     -21.106
  C       33.154     -23.523     -22.051
  C       34.306     -23.013     -22.482
  O       34.921     -17.065     -23.600
  O       33.219     -18.528     -22.312
  H       38.312     -24.250     -24.668
  H       32.605     -17.753     -22.327
  H       32.238     -22.955     -21.975
  H       34.366     -21.976     -22.785
  H       37.527     -23.917     -22.680
  H       36.054     -23.675     -25.073
  H       35.428     -21.367     -24.570
  H       38.331     -20.993     -23.649
  H       32.196     -26.421     -20.677
  H       37.197     -19.433     -22.002
  H       31.317     -24.948     -20.745
  H       37.201     -18.856     -23.685
  P       35.926     -20.778     -27.065
  C       36.931     -22.871     -28.219
  O       35.767     -22.232     -27.727
  O       36.748     -19.934     -28.146
  O       34.650     -20.109     -26.676
  H       36.484     -18.995     -28.115
  H       36.694     -23.921     -28.410
  H       37.740     -22.822     -27.486
  H       37.244     -22.405     -29.156
  H       35.380     -18.096     -19.111
  H       35.028     -19.515     -20.068
  H       33.812     -18.278     -19.860

 3  4  5  6  7  8  9  10  11  12  13  23  27  28  29  30  32 0
 6-311+G(2d,p)
 ****
 34  35 0
 6-311+G(2d,p)
 ****
 1  2  14  15  16  17  18  19  20  21  22  24  25  26 0
 3-21G
 ****
 31  33  36  37  38  39  40  41  42  43  44  45  46 0
 3-21G
 ****


