%nproc=1
%NoSave
%Mem=1900MB
#P OB98/GEN NMR

erre ene a

0 1
  C     -455.298    -491.840    -199.159
  O     -454.580    -490.940    -199.986
  H     -455.612    -491.314    -198.251
  H     -454.666    -492.684    -198.863
  H     -456.186    -492.207    -199.678
  P     -453.877    -491.517    -201.304
  C     -455.472    -490.434    -203.027
  O     -455.044    -491.633    -202.394
  C     -455.170    -490.498    -204.523
  O     -455.802    -491.651    -205.115
  C     -455.699    -489.288    -205.289
  O     -454.881    -488.158    -205.078
  C     -455.706    -489.837    -206.706
  O     -454.401    -489.798    -207.289
  C     -456.164    -491.295    -206.469
  N     -457.602    -491.479    -206.694
  C     -457.987    -491.672    -208.020
  O     -457.153    -491.686    -208.926
  N     -459.329    -491.825    -208.294
  C     -460.194    -491.804    -207.329
  N     -461.499    -491.963    -207.667
  C     -459.812    -491.616    -205.916
  C     -458.517    -491.459    -205.673
  O     -453.054    -492.758    -201.141
  O     -453.006    -490.283    -201.836
  H     -453.807    -490.244    -206.654
  H     -452.115    -490.300    -201.445
  H     -460.572    -491.611    -205.141
  H     -458.160    -491.318    -204.658
  H     -455.622    -491.978    -207.133
  H     -456.374    -489.268    -207.350
  H     -456.736    -489.080    -205.000
  H     -454.086    -490.600    -204.655
  H     -461.714    -492.072    -208.648
  H     -454.927    -489.602    -202.565
  H     -462.246    -492.044    -206.995
  H     -456.547    -490.273    -202.869
  P     -455.533    -486.706    -204.869
  C     -455.393    -486.933    -202.302
  O     -456.250    -486.765    -203.433
  O     -456.391    -486.231    -205.987
  O     -454.264    -485.773    -204.593
  H     -453.753    -485.595    -205.424
  H     -455.982    -486.957    -201.409
  H     -454.704    -486.116    -202.252
  H     -454.852    -487.851    -202.398

 6  7  8  9  10  11  12  13  14  15  16  26  30  31  32  33  35 0
 6-311+G(2d,p)
 ****
 37  38 0
 6-311+G(2d,p)
 ****
 1  2  3  4  5  17  18  19  20  21  22  23  24  25 0
 3-21G
 ****
 27  28  29  34  36  39  40  41  42  43  44  45  46 0
 3-21G
 ****


