%nproc=1
%NoSave
%Mem=1900MB
#P OB98/GEN NMR

erre ene a

0 1
  C      150.146      93.734      19.870
  O      149.599      93.752      21.174
  H      149.825      94.637      19.342
  H      149.784      92.858      19.326
  H      151.239      93.719      19.915
  P      150.083      92.604      22.180
  C      149.824      89.992      22.278
  O      149.451      91.219      21.664
  C      148.924      88.864      21.778
  O      147.553      89.077      22.172
  C      148.855      88.756      20.263
  O      150.048      88.263      19.695
  C      147.664      87.823      20.108
  O      148.039      86.459      20.344
  C      146.727      88.335      21.231
  N      145.632      89.146      20.718
  C      144.348      88.764      21.128
  O      144.198      87.803      21.884
  N      143.268      89.462      20.645
  C      143.454      90.468      19.848
  N      142.342      91.111      19.399
  C      144.790      90.920      19.413
  C      145.822      90.218      19.876
  O      149.233      92.912      23.498
  O      151.560      92.530      22.399
  H      148.803      86.279      19.760
  H      148.276      92.973      23.340
  H      144.897      91.769      18.754
  H      146.836      90.481      19.607
  H      146.297      87.491      21.788
  H      147.236      87.865      19.104
  H      148.582      89.725      19.828
  H      149.270      87.926      22.233
  H      141.442      90.761      19.701
  H      149.777      90.070      23.368
  H      142.362      91.885      18.748
  H      150.866      89.791      22.007
  P      150.599      88.858      18.313
  C      150.022      88.425      15.840
  O      150.067      87.880      17.156
  O      152.068      89.121      18.275
  O      149.699      90.165      18.090
  H      148.742      89.996      18.028
  H      149.654      87.685      15.160
  H      151.006      88.723      15.544
  H      149.373      89.275      15.828

 6  7  8  9  10  11  12  13  14  15  16  26  30  31  32  33  35 0
 6-311+G(2d,p)
 ****
 37  38 0
 6-311+G(2d,p)
 ****
 1  2  3  4  5  17  18  19  20  21  22  23  24  25 0
 3-21G
 ****
 27  28  29  34  36  39  40  41  42  43  44  45  46 0
 3-21G
 ****


