%nproc=1
%NoSave
%Mem=1900MB
#P OB98/GEN NMR

erre ene a

0 1
  C        3.779       2.314     -59.566
  O        4.715       1.770     -58.663
  H        3.285       3.162     -59.083
  H        3.018       1.575     -59.827
  H        4.281       2.670     -60.469
  P        5.451       0.392     -59.041
  C        7.851       0.662     -58.174
  O        6.547       0.177     -57.877
  C        7.974       2.157     -57.873
  O        7.775       2.386     -56.454
  C        9.335       2.755     -58.252
  O        9.136       3.981     -58.958
  C        9.998       3.020     -56.908
  O       10.990       4.039     -56.990
  C        8.778       3.331     -56.034
  N        9.058       3.225     -54.607
  C        9.630       4.345     -53.998
  O        9.908       5.342     -54.668
  N        9.912       4.299     -52.657
  C        9.693       3.212     -51.990
  N       10.003       3.227     -50.665
  C        9.133       1.988     -52.601
  C        8.836       2.067     -53.898
  O        5.993       0.335     -60.430
  O        4.367      -0.741     -58.728
  H       11.336       4.208     -56.086
  H        4.606      -1.568     -59.217
  H        8.978       1.102     -52.006
  H        8.412       1.220     -54.428
  H        8.401       4.342     -56.239
  H       10.484       2.102     -56.554
  H        9.939       2.095     -58.870
  H        7.155       2.679     -58.383
  H       10.383       4.085     -50.285
  H        8.065       0.468     -59.231
  H        9.881       2.435     -50.051
  H        8.569       0.114     -57.554
  P        9.268       3.905     -60.556
  C        8.370       6.213     -61.316
  O        9.511       5.396     -61.103
  O        7.778       3.560     -61.029
  O       10.252       2.885     -61.029
  H        7.702       2.610     -61.232
  H        8.680       7.171     -61.678
  H        7.841       6.334     -60.394
  H        7.729       5.750     -62.037

 6  7  8  9  10  11  12  13  14  15  16  26  30  31  32  33  35 0
 6-311+G(2d,p)
 ****
 37  38 0
 6-311+G(2d,p)
 ****
 1  2  3  4  5  17  18  19  20  21  22  23  24  25 0
 3-21G
 ****
 27  28  29  34  36  39  40  41  42  43  44  45  46 0
 3-21G
 ****


