%nproc=1
%NoSave
%Mem=1900MB
#P OB98/GEN NMR

erre ene a

0 1
  C     -114.268     223.315    -278.817
  O     -115.164     224.109    -278.066
  H     -113.539     223.972    -279.299
  H     -114.798     222.751    -279.592
  H     -113.736     222.626    -278.157
  P     -116.483     223.406    -277.474
  C     -116.494     224.756    -275.268
  O     -117.155     224.503    -276.508
  C     -117.204     225.866    -274.487
  O     -117.246     227.076    -275.271
  C     -118.658     225.551    -274.159
  O     -118.824     224.521    -273.207
  C     -119.235     226.930    -273.882
  O     -119.055     227.365    -272.537
  C     -118.401     227.824    -274.839
  N     -119.189     228.307    -275.967
  C     -120.396     228.922    -275.642
  O     -120.810     229.050    -274.489
  N     -121.143     229.362    -276.698
  C     -120.833     229.199    -278.020
  O     -121.568     229.579    -278.927
  C     -119.559     228.517    -278.300
  C     -118.806     228.104    -277.275
  O     -116.270     222.073    -276.816
  O     -117.482     223.356    -278.719
  H     -119.107     228.340    -272.541
  H     -118.217     222.717    -278.562
  H     -122.014     229.819    -276.489
  H     -119.280     228.366    -279.336
  H     -117.862     227.601    -277.456
  H     -118.020     228.701    -274.296
  H     -120.308     226.964    -274.088
  H     -119.139     225.193    -275.078
  H     -116.628     226.068    -273.577
  H     -115.473     225.077    -275.495
  H     -116.455     223.835    -274.676
  P     -119.896     223.346    -273.362
  C     -118.203     221.594    -272.464
  O     -119.502     222.164    -272.349
  O     -120.303     222.988    -274.758
  O     -121.185     223.996    -272.641
  H     -121.981     223.678    -273.111
  H     -118.085     220.825    -271.730
  H     -117.465     222.353    -272.307
  H     -118.082     221.176    -273.441

 6  7  8  9  10  11  12  13  14  15  16  26  31  32  33  34  35 0
 6-311+G(2d,p)
 ****
 36  37 0
 6-311+G(2d,p)
 ****
 1  2  3  4  5  17  18  19  20  21  22  23  24  25 0
 3-21G
 ****
 27  28  29  30  38  39  40  41  42  43  44  45 0
 3-21G
 ****


