%nproc=1
%NoSave
%Mem=1900MB
#P OB98/GEN NMR

erre ene a

0 1
  C      -80.044     759.702    -899.250
  O      -79.051     760.536    -899.810
  H      -80.086     758.769    -899.820
  H      -81.015     760.194    -899.320
  H      -79.814     759.470    -898.210
  P      -78.812     761.965    -899.090
  C      -76.656     760.859    -898.100
  O      -77.830     761.656    -897.850
  C      -75.832     760.783    -896.800
  O      -75.587     762.106    -896.280
  C      -76.507     759.930    -895.690
  O      -75.533     759.086    -895.080
  C      -76.996     760.969    -894.710
  O      -77.119     760.463    -893.390
  C      -75.963     762.107    -894.910
  N      -76.534     763.414    -894.530
  C      -76.487     763.739    -893.140
  O      -76.005     762.938    -892.330
  N      -77.037     764.930    -892.740
  C      -77.617     765.712    -893.580
  N      -78.143     766.863    -893.090
  C      -77.715     765.377    -895.020
  C      -77.164     764.251    -895.430
  O      -80.213     762.265    -898.400
  O      -78.327     763.058    -900.000
  H      -77.824     759.792    -893.390
  H      -80.287     763.194    -898.100
  H      -78.217     766.060    -895.720
  H      -77.193     763.914    -896.440
  H      -75.071     761.921    -894.270
  H      -78.004     761.319    -895.030
  H      -77.311     759.322    -896.070
  H      -74.837     760.365    -897.070
  H      -78.050     767.052    -892.110
  H      -76.062     761.354    -898.880
  H      -78.660     767.527    -893.690
  H      -76.949     759.870    -898.430
  P      -75.997     757.554    -894.830
  C      -73.848     756.490    -895.880
  O      -75.276     756.645    -895.940
  O      -77.519     757.573    -895.280
  O      -75.813     757.127    -893.440
  H      -78.098     757.652    -894.510
  H      -73.524     755.860    -896.682
  H      -73.576     756.045    -894.945
  H      -73.381     757.449    -895.968

 6  7  8  9  10  11  12  13  14  15  16  26  30  31  32  33  35 0
 6-311+G(2d,p)
 ****
 37  38 0
 6-311+G(2d,p)
 ****
 1  2  3  4  5  17  18  19  20  21  22  23  24  25 0
 3-21G
 ****
 27  28  29  34  36  39  40  41  42  43  44  45  46 0
 3-21G
 ****


