%nproc=1
%NoSave
%Mem=1900MB
#P OB98/GEN NMR

erre ene a

0 1
  C      224.586    -480.190     393.012
  O      223.717    -480.421     391.896
  P      222.988    -481.844     391.834
  C      220.460    -482.366     391.513
  O      221.604    -481.672     391.037
  C      219.191    -481.772     390.900
  O      219.035    -480.375     391.240
  C      219.175    -481.819     389.373
  O      218.916    -483.126     388.908
  C      218.082    -480.804     389.073
  O      216.780    -481.395     389.246
  C      218.315    -479.736     390.158
  N      218.126    -475.494     387.293
  C      217.209    -476.446     387.574
  N      217.331    -477.545     388.342
  C      218.567    -477.614     388.863
  C      219.614    -476.725     388.675
  C      219.363    -475.627     387.843
  N      220.305    -474.672     387.550
  N      220.731    -477.134     389.374
  C      220.374    -478.264     389.954
  N      219.073    -478.596     389.688
  O      222.527    -482.092     393.345
  O      223.866    -482.951     391.332
  H      216.825    -482.310     388.900
  H      223.078    -482.789     393.752
  H      216.231    -476.300     387.110
  H      221.020    -478.883     390.572
  H      217.374    -479.359     390.578
  H      218.125    -480.410     388.050
  H      220.142    -481.462     388.978
  H      218.330    -482.324     391.296
  H      220.404    -482.303     392.603
  H      220.065    -473.950     386.881
  H      221.251    -474.798     387.884
  H      220.568    -483.428     391.256
  P      220.023    -483.828     387.980
  C      220.479    -486.292     387.439
  O      219.516    -485.344     387.853
  O      221.259    -483.953     388.988
  O      220.303    -483.122     386.695
  H      220.975    -484.288     389.860
  H      220.012    -487.284     387.430
  H      221.323    -486.306     388.137
  H      220.829    -486.058     386.432
  H      225.009    -479.210     392.938
  H      225.370    -480.918     393.010
  H      224.028    -480.270     393.921

 3  4  5  6  7  8  9  10  11  12  22  25  29  30  31  32 0
 6-311+G(2d,p)
 ****
 33  36  37 0
 6-311+G(2d,p)
 ****
 1  2  13  14  15  16  17  18  19  20  21  23  24  26 0
 3-21G
 ****
 27  28  34  35  38  39  40  41  42  43  44  45  46  47  48 0
 3-21G
 ****


