%nproc=1
%NoSave
%Mem=1900MB
#P OB98/GEN NMR

erre ene a

0 1
  C     -993.261    -560.275    -899.110
  O     -994.393    -561.093    -899.300
  H     -993.132    -559.634    -900.000
  H     -992.356    -560.887    -898.990
  H     -993.399    -559.636    -898.230
  P     -994.674    -562.184    -898.150
  C     -993.051    -563.872    -897.000
  O     -993.342    -563.083    -898.140
  C     -992.693    -565.298    -897.420
  O     -991.377    -565.324    -898.040
  C     -992.630    -566.318    -896.290
  O     -993.908    -566.740    -895.840
  C     -991.859    -567.417    -896.960
  O     -992.720    -568.122    -897.880
  C     -990.777    -566.613    -897.730
  N     -989.551    -566.423    -896.940
  C     -988.529    -567.366    -897.130
  O     -988.685    -568.287    -897.920
  N     -987.373    -567.248    -896.400
  C     -987.229    -566.257    -895.570
  N     -986.074    -566.199    -894.860
  C     -988.278    -565.239    -895.340
  C     -989.399    -565.386    -896.070
  O     -995.756    -563.165    -898.830
  O     -995.077    -561.647    -896.810
  H     -993.235    -567.431    -898.370
  H     -995.888    -563.953    -898.250
  H     -988.116    -564.447    -894.630
  H     -990.193    -564.658    -895.940
  H     -990.512    -567.100    -898.670
  H     -991.468    -568.160    -896.270
  H     -992.036    -565.914    -895.450
  H     -993.422    -565.615    -898.190
  H     -985.403    -566.948    -894.990
  H     -993.934    -563.893    -896.370
  H     -985.932    -565.554    -894.090
  H     -992.216    -563.442    -896.440
  P     -994.008    -567.341    -894.350
  C     -993.041    -569.440    -893.150
  O     -993.289    -568.775    -894.390
  O     -995.569    -567.691    -894.210
  O     -993.524    -566.417    -893.270
  H     -995.855    -567.554    -893.280
  H     -992.560    -570.377    -893.338
  H     -993.969    -569.610    -892.645
  H     -992.408    -568.831    -892.539

 6  7  8  9  10  11  12  13  14  15  16  26  30  31  32  33  35 0
 6-311+G(2d,p)
 ****
 37  38 0
 6-311+G(2d,p)
 ****
 1  2  3  4  5  17  18  19  20  21  22  23  24  25 0
 3-21G
 ****
 27  28  29  34  36  39  40  41  42  43  44  45  46 0
 3-21G
 ****


