%nproc=1
%NoSave
%Mem=1900MB
#P OB98/GEN NMR

erre ene a

0 1
  C       -2.056    -160.772     -46.533
  O       -2.509    -162.016     -45.992
  P       -4.004    -162.129     -45.432
  C       -3.639    -160.973     -43.155
  O       -4.276    -160.911     -44.422
  C       -4.664    -160.876     -42.015
  O       -4.004    -161.099     -40.740
  C       -5.362    -159.509     -41.952
  O       -6.785    -159.608     -41.900
  C       -4.700    -158.828     -40.768
  O       -5.504    -157.808     -40.193
  C       -4.331    -160.008     -39.861
  N       -3.229    -159.679     -38.953
  C       -3.464    -158.674     -38.023
  O       -4.507    -158.019     -37.989
  N       -2.436    -158.395     -37.164
  C       -1.193    -158.958     -37.197
  O       -0.289    -158.641     -36.436
  C       -0.980    -159.970     -38.244
  C       -1.992    -160.278     -39.059
  O       -4.408    -163.473     -44.924
  O       -4.894    -161.718     -46.706
  H       -4.999    -157.391     -39.462
  H       -5.687    -162.288     -46.715
  H       -2.598    -157.680     -36.472
  H       -0.001    -160.421     -38.315
  H       -1.859    -161.009     -39.846
  H       -5.183    -160.308     -39.242
  H       -3.775    -158.351     -41.116
  H       -5.172    -158.923     -42.858
  H       -5.399    -161.672     -42.169
  H       -2.930    -160.149     -43.064
  H       -3.047    -161.894     -43.091
  P       -7.734    -159.702     -43.184
  C       -8.876    -157.376     -43.117
  O       -7.948    -158.226     -43.762
  O       -8.985    -160.496     -43.010
  O       -6.791    -160.395     -44.280
  H       -7.315    -161.037     -44.794
  H       -9.173    -156.590     -43.814
  H       -8.402    -156.914     -42.246
  H       -9.767    -157.926     -42.802
  H       -1.042    -160.873     -46.858
  H       -2.115    -160.013     -45.781
  H       -2.672    -160.499     -47.364

 3  4  5  6  7  8  9  10  11  12  13  23  28  29  30  31  32 0
 6-311+G(2d,p)
 ****
 33  34 0
 6-311+G(2d,p)
 ****
 1  2  14  15  16  17  18  19  20  21  22  24  25  26  27 0
 3-21G
 ****
 35  36  37  38  39  40  41  42  43  44  45 0
 3-21G
 ****


