%nproc=1
%NoSave
%Mem=1900MB
#P OB98/GEN NMR

erre ene a

0 1
  C      135.095     266.202    -115.409
  O      134.706     266.426    -114.069
  H      136.143     266.496    -115.523
  H      134.487     266.795    -116.097
  H      135.001     265.141    -115.654
  P      133.147     266.316    -113.706
  C      133.759     264.746    -111.749
  O      133.094     265.945    -112.144
  C      133.464     264.412    -110.284
  O      132.043     264.436    -110.047
  C      133.912     263.018    -109.873
  O      135.316     262.857    -109.819
  C      133.077     262.761    -108.628
  O      133.664     263.274    -107.435
  C      131.778     263.540    -108.948
  N      130.661     262.646    -109.229
  C      130.198     261.901    -108.155
  O      130.686     261.949    -107.027
  N      129.160     261.048    -108.421
  C      128.593     260.839    -109.644
  O      127.688     260.030    -109.829
  C      129.142     261.638    -110.749
  C      130.137     262.493    -110.498
  O      132.340     265.399    -114.574
  O      132.644     267.833    -113.734
  H      134.311     262.609    -107.124
  H      131.657     267.883    -113.787
  H      128.799     260.507    -107.651
  H      128.719     261.497    -111.734
  H      130.565     263.092    -111.300
  H      131.496     264.170    -108.095
  H      132.914     261.692    -108.466
  H      133.559     262.310    -110.631
  H      133.927     265.181    -109.656
  H      134.834     264.907    -111.872
  H      133.448     263.923    -112.402
  P      136.146     262.045    -110.916
  C      138.007     263.856    -111.072
  O      137.688     262.495    -110.809
  O      135.528     261.921    -112.268
  O      136.176     260.570    -110.261
  H      136.149     259.925    -110.994
  H      139.061     264.003    -110.963
  H      137.486     264.485    -110.381
  H      137.714     264.104    -112.071

 6  7  8  9  10  11  12  13  14  15  16  26  31  32  33  34  35 0
 6-311+G(2d,p)
 ****
 36  37 0
 6-311+G(2d,p)
 ****
 1  2  3  4  5  17  18  19  20  21  22  23  24  25 0
 3-21G
 ****
 27  28  29  30  38  39  40  41  42  43  44  45 0
 3-21G
 ****


