%nproc=1
%NoSave
%Mem=1900MB
#P OB98/GEN NMR

erre ene a

0 1
  C       97.171      -2.568    -163.731
  O       97.692      -3.585    -164.568
  P       98.941      -3.203    -165.501
  C       97.341      -3.390    -167.543
  O       98.313      -2.611    -166.852
  C       97.303      -3.005    -169.018
  O       96.974      -1.610    -169.156
  C       98.628      -3.186    -169.739
  O       98.846      -4.550    -170.043
  C       98.427      -2.303    -170.965
  O       97.770      -3.024    -172.020
  C       97.521      -1.174    -170.421
  N       98.225       0.091    -170.288
  C       97.965       1.041    -171.284
  O       97.197       0.771    -172.209
  N       98.613       2.250    -171.226
  C       99.447       2.485    -170.261
  N      100.055       3.703    -170.251
  C       99.763       1.506    -169.204
  C       99.127       0.337    -169.281
  O       99.512      -4.628    -165.945
  O       99.978      -2.355    -164.840
  H       97.596      -2.364    -172.723
  H      100.463      -4.571    -166.155
  H      100.466       1.752    -168.422
  H       99.300      -0.440    -168.546
  H       96.665      -1.017    -171.089
  H       99.378      -1.946    -171.369
  H       99.453      -2.795    -169.132
  H       96.514      -3.592    -169.506
  H       99.824       4.351    -170.993
  H       96.355      -3.208    -167.105
  H      100.703       3.992    -169.531
  H       97.586      -4.450    -167.423
  P      100.333      -4.996    -170.432
  C      100.282      -4.581    -172.962
  O      100.713      -4.099    -171.704
  O      100.091      -6.435    -171.096
  O      101.339      -5.048    -169.332
  H      100.947      -6.860    -171.290
  H      100.464      -3.810    -173.714
  H       99.213      -4.807    -172.940
  H      100.847      -5.477    -173.232
  H       96.348      -2.956    -163.168
  H       96.837      -1.748    -164.332
  H       97.934      -2.232    -163.061

 3  4  5  6  7  8  9  10  11  12  13  21  23  27  28  29  30  32 0
 6-311+G(2d,p)
 ****
 34  35 0
 6-311+G(2d,p)
 ****
 1  2  14  15  16  17  18  19  20  22  24  25  26 0
 3-21G
 ****
 31  33  36  37  38  39  40  41  42  43  44  45  46 0
 3-21G
 ****


