%nproc=1
%NoSave
%Mem=1900MB
#P OB98/GEN NMR

erre ene a

0 1
  C      269.906    -105.229     -73.374
  O      269.371    -106.275     -72.588
  H      269.174    -104.956     -74.138
  H      270.827    -105.551     -73.870
  H      270.108    -104.351     -72.753
  P      270.285    -106.914     -71.439
  C      272.239    -108.613     -71.367
  O      271.378    -107.823     -72.183
  C      273.366    -109.217     -72.208
  O      273.914    -108.226     -73.100
  C      274.547    -109.731     -71.384
  O      274.221    -110.958     -70.757
  C      275.619    -109.811     -72.459
  O      275.450    -110.985     -73.268
  C      275.318    -108.533     -73.280
  N      276.151    -107.394     -72.907
  C      277.427    -107.349     -73.486
  O      277.795    -108.247     -74.246
  N      278.252    -106.297     -73.169
  C      277.830    -105.352     -72.386
  N      278.699    -104.332     -72.114
  C      276.481    -105.342     -71.784
  C      275.707    -106.387     -72.077
  O      269.563    -107.605     -70.325
  O      271.151    -105.677     -70.898
  H      275.709    -111.740     -72.706
  H      270.721    -105.269     -70.126
  H      276.166    -104.531     -71.145
  H      274.699    -106.460     -71.679
  H      275.461    -108.727     -74.355
  H      276.624    -109.854     -72.038
  H      274.852    -108.981     -70.644
  H      272.938    -110.017     -72.824
  H      279.604    -104.375     -72.566
  H      271.631    -109.408     -70.929
  H      278.423    -103.477     -71.657
  H      272.659    -108.009     -70.553
  P      275.119    -111.560     -69.576
  C      277.338    -112.862     -69.473
  O      276.269    -112.423     -70.299
  O      274.366    -112.282     -68.508
  O      275.933    -110.293     -69.032
  H      275.353    -109.730     -68.460
  H      278.036    -113.422     -70.060
  H      276.953    -113.482     -68.690
  H      277.831    -112.013     -69.046

 6  7  8  9  10  11  12  13  14  15  16  26  30  31  32  33  35 0
 6-311+G(2d,p)
 ****
 37  38 0
 6-311+G(2d,p)
 ****
 1  2  3  4  5  17  18  19  20  21  22  23  24  25 0
 3-21G
 ****
 27  28  29  34  36  39  40  41  42  43  44  45  46 0
 3-21G
 ****


