%nproc=1
%NoSave
%Mem=1900MB
#P OB98/GEN NMR

erre ene a

0 1
  C      305.457    -202.165     264.086
  O      305.430    -200.761     263.898
  P      305.075    -199.779     265.112
  C      302.739    -198.819     264.586
  O      303.473    -199.842     265.255
  C      302.637    -199.105     263.087
  O      302.139    -200.442     262.863
  C      301.693    -198.176     262.338
  O      302.299    -196.915     262.119
  C      301.430    -198.981     261.069
  O      302.482    -198.805     260.111
  C      301.417    -200.433     261.606
  N      300.070    -200.960     261.755
  C      299.423    -201.332     260.566
  O      299.985    -201.179     259.483
  N      298.144    -201.827     260.637
  C      297.551    -201.915     261.792
  N      296.278    -202.396     261.803
  C      298.183    -201.502     263.064
  C      299.430    -201.036     262.972
  O      305.655    -198.408     265.020
  O      305.573    -200.598     266.398
  H      302.388    -199.540     259.468
  H      306.564    -200.590     266.472
  H      297.645    -201.583     263.997
  H      299.966    -200.709     263.855
  H      301.974    -201.096     260.928
  H      300.492    -198.689     260.582
  H      300.754    -198.067     262.902
  H      303.650    -199.040     262.660
  H      295.869    -202.642     260.906
  H      303.254    -197.869     264.741
  H      295.714    -202.469     262.635
  H      301.737    -198.741     265.035
  P      301.470    -195.746     261.398
  C      301.798    -195.079     258.938
  O      301.390    -196.099     259.834
  O      301.918    -194.356     261.719
  O      299.966    -195.986     261.899
  H      299.577    -195.127     262.146
  H      302.017    -195.537     257.965
  H      302.699    -194.576     259.301
  H      300.991    -194.356     258.818
  H      305.713    -202.643     263.164
  H      304.493    -202.501     264.407
  H      306.186    -202.411     264.830

 3  4  5  6  7  8  9  10  11  12  13  23  27  28  29  30  32 0
 6-311+G(2d,p)
 ****
 34  35 0
 6-311+G(2d,p)
 ****
 1  2  14  15  16  17  18  19  20  21  22  24  25  26 0
 3-21G
 ****
 31  33  36  37  38  39  40  41  42  43  44  45  46 0
 3-21G
 ****


