%nproc=1
%NoSave
%Mem=1900MB
#P OB98/GEN NMR

erre ene a

0 1
  C      308.023    -206.469     389.491
  O      308.911    -205.687     390.269
  H      307.004    -206.123     389.666
  H      308.098    -207.519     389.782
  H      308.256    -206.363     388.428
  P      310.473    -206.016     390.116
  C      312.120    -207.637     391.325
  O      310.785    -207.170     391.187
  C      312.125    -209.086     391.827
  O      311.580    -209.114     393.177
  C      311.255    -210.036     390.979
  O      311.824    -211.352     391.038
  C      309.944    -210.024     391.744
  O      309.136    -211.109     391.355
  C      310.480    -210.048     393.168
  N      307.583    -211.774     396.998
  C      308.550    -212.363     396.257
  N      309.281    -211.828     395.258
  C      308.951    -210.541     395.067
  C      307.993    -209.809     395.742
  C      307.280    -210.479     396.745
  N      306.279    -209.892     397.487
  N      307.928    -208.516     395.242
  C      308.842    -208.477     394.288
  N      309.487    -209.675     394.153
  O      311.180    -204.720     390.736
  O      310.944    -206.301     388.732
  H      308.965    -211.093     390.392
  H      311.376    -204.077     390.031
  H      308.759    -213.403     396.498
  H      309.069    -207.620     393.669
  H      310.872    -211.031     393.454
  H      309.380    -209.105     391.546
  H      311.164    -209.721     389.936
  H      313.157    -209.444     391.893
  H      312.641    -206.993     392.041
  H      312.626    -207.587     390.356
  H      305.797    -210.450     398.171
  H      306.013    -208.934     397.290
  P      312.521    -211.966     389.719
  C      311.853    -213.499     387.719
  O      311.420    -212.673     388.790
  O      313.322    -213.219     390.315
  O      313.460    -211.044     389.009
  H      314.223    -213.235     389.951
  H      311.001    -213.890     387.203
  H      312.438    -214.307     388.106
  H      312.447    -212.922     387.041

 6  7  8  9  10  11  12  13  14  15  25  28  32  33  34  35 0
 6-311+G(2d,p)
 ****
 36  37  40 0
 6-311+G(2d,p)
 ****
 1  2  3  4  5  16  17  18  19  20  21  22  23  24 0
 3-21G
 ****
 26  27  29  30  31  38  39 41  42  43  44  45  46  47  48 0
 3-21G
 ****


