%nproc=1
%NoSave
%Mem=1900MB
#P OB98/GEN NMR

erre ene a

0 1
  C     -147.783    -394.399     465.548
  O     -147.660    -392.998     465.433
  P     -148.684    -392.080     464.623
  C     -148.622    -390.780     462.357
  O     -148.085    -391.826     463.154
  C     -148.779    -391.227     460.899
  O     -147.468    -391.565     460.370
  C     -149.637    -392.507     460.789
  O     -150.557    -392.495     459.704
  C     -148.597    -393.618     460.806
  O     -149.072    -394.853     460.279
  C     -147.436    -392.971     460.057
  N     -144.314    -396.981     459.892
  C     -145.496    -396.775     459.214
  N     -146.009    -397.839     458.562
  N     -146.146    -395.637     459.218
  C     -145.582    -394.694     460.013
  C     -144.407    -394.782     460.728
  C     -143.682    -396.033     460.678
  O     -142.687    -396.298     461.353
  N     -144.176    -393.650     461.470
  C     -145.230    -392.894     461.229
  N     -146.127    -393.496     460.381
  O     -149.265    -390.915     465.355
  O     -149.885    -393.120     464.324
  H     -149.776    -395.175     460.871
  H     -150.724    -392.607     464.340
  H     -143.901    -397.905     459.914
  H     -145.405    -391.915     461.671
  H     -147.548    -393.084     458.976
  H     -148.331    -393.802     461.856
  H     -145.607    -398.772     458.665
  H     -150.283    -392.607     461.666
  H     -146.982    -397.797     458.278
  H     -149.183    -390.398     460.297
  H     -147.914    -389.946     462.416
  H     -149.579    -390.434     462.759
  P     -151.693    -393.566     459.339
  C     -151.899    -395.626     457.832
  O     -151.016    -394.770     458.526
  O     -152.599    -392.857     458.228
  O     -152.540    -394.003     460.493
  H     -153.535    -393.076     458.387
  H     -151.362    -396.546     457.558
  H     -152.249    -395.142     456.918
  H     -152.753    -395.900     458.462
  H     -146.976    -394.781     466.138
  H     -147.752    -394.841     464.574
  H     -148.714    -394.638     466.019

 3  4  5  6  7  8  9  10  11  12  23  26  30  31 0
 6-311+G(2d,p)
 ****
 33  35  36  37  38 0
 6-311+G(2d,p)
 ****
 1  2  13  14  15  16  17  18  19  20  21  22  24  25 0
 3-21G
 ****
 27  28  29  32  34  39  40  41  42  43  44  45  46  47  48  49 0
 3-21G
 ****


