%nproc=1
%NoSave
%Mem=1900MB
#P OB98/GEN NMR

erre ene a

0 1
  C     -167.092     -14.004    -297.246
  O     -167.416     -14.254    -298.598
  H     -167.614     -13.096    -296.924
  H     -166.016     -13.846    -297.128
  H     -167.418     -14.835    -296.614
  P     -166.711     -15.490    -299.334
  C     -168.117     -17.169    -297.953
  O     -166.811     -16.733    -298.328
  C     -168.035     -18.408    -297.066
  O     -169.331     -18.710    -296.507
  C     -167.596     -19.670    -297.801
  O     -166.204     -19.642    -298.052
  C     -168.055     -20.736    -296.817
  O     -167.143     -20.852    -295.716
  C     -169.407     -20.145    -296.344
  N     -170.562     -20.687    -297.062
  C     -170.959     -21.980    -296.706
  O     -170.340     -22.601    -295.841
  N     -172.037     -22.536    -297.351
  C     -172.687     -21.851    -298.236
  N     -173.747     -22.455    -298.835
  C     -172.324     -20.471    -298.619
  C     -171.256     -19.959    -298.007
  O     -165.336     -15.242    -299.874
  O     -167.739     -15.882    -300.500
  H     -167.130     -19.977    -295.279
  H     -167.499     -15.439    -301.335
  H     -172.903     -19.932    -299.353
  H     -170.922     -18.951    -298.226
  H     -169.554     -20.335    -295.272
  H     -168.128     -21.721    -297.277
  H     -168.162     -19.790    -298.728
  H     -167.359     -18.181    -296.229
  H     -173.973     -23.396    -298.528
  H     -168.656     -17.403    -298.879
  H     -174.418     -21.971    -299.412
  H     -168.657     -16.369    -297.433
  P     -165.476     -20.794    -298.896
  C     -165.621     -19.307    -300.992
  O     -165.936     -20.570    -300.421
  O     -165.672     -22.180    -298.378
  O     -163.946     -20.334    -298.925
  H     -163.510     -20.533    -298.060
  H     -165.973     -19.274    -302.002
  H     -164.561     -19.164    -300.979
  H     -166.092     -18.532    -300.425

 6  7  8  9  10  11  12  13  14  15  16  26  30  31  32  33  35 0
 6-311+G(2d,p)
 ****
 37  38 0
 6-311+G(2d,p)
 ****
 1  2  3  4  5  17  18  19  20  21  22  23  24  25 0
 3-21G
 ****
 27  28  29  34  36  39  40  41  42  43  44  45  46 0
 3-21G
 ****


