%nproc=1
%NoSave
%Mem=1900MB
#P OB98/GEN NMR

erre ene a

0 1
  C       51.028     296.535     -10.295
  O       49.926     295.991     -11.003
  P       49.732     294.401     -10.994
  C       49.645     292.544      -9.181
  O       50.016     293.878      -9.503
  C       50.817     291.792      -8.548
  O       51.843     291.564      -9.549
  C       51.473     292.541      -7.385
  O       51.940     291.595      -6.412
  C       52.693     293.178      -8.019
  O       53.699     293.464      -7.048
  C       53.078     292.106      -9.038
  N       57.572     294.084     -10.230
  C       57.186     293.412      -9.087
  N       58.099     293.336      -8.097
  N       56.011     292.860      -8.933
  C       55.198     293.023     -10.006
  C       55.473     293.653     -11.199
  C       56.773     294.271     -11.351
  O       57.166     294.904     -12.325
  N       54.410     293.583     -12.061
  C       53.475     292.949     -11.381
  N       53.894     292.621     -10.116
  O       50.999     293.883     -11.823
  O       48.460     293.926     -11.609
  H       53.388     294.238      -6.539
  H       50.719     293.599     -12.713
  H       58.486     294.503     -10.296
  H       52.480     292.727     -11.743
  H       53.629     291.283      -8.563
  H       52.414     294.117      -8.510
  H       58.996     293.798      -8.127
  H       50.825     293.276      -6.896
  H       57.825     292.889      -7.231
  H       50.463     290.805      -8.222
  H       49.340     292.030     -10.091
  H       48.792     292.558      -8.493
  P       52.273     292.188      -4.957
  C       50.846     293.431      -3.172
  O       50.976     293.014      -4.516
  O       53.361     293.321      -5.263
  O       52.765     291.174      -3.980
  H       53.921     293.470      -4.478
  H       50.838     294.524      -3.139
  H       51.660     293.063      -2.541
  H       49.898     293.056      -2.775
  H       51.024     297.600     -10.393
  H       51.939     296.143     -10.697
  H       50.952     296.272      -9.261

 3  4  5  6  7  8  9  10  11  12  23  26  30  31 0
 6-311+G(2d,p)
 ****
 33  35  36  37  38 0
 6-311+G(2d,p)
 ****
 1  2  13  14  15  16  17  18  19  20  21  22  24  25 0
 3-21G
 ****
 27  28  29  32  34  39  40  41  42  43  44  45  46  47  48  49 0
 3-21G
 ****


