%nproc=1
%NoSave
%Mem=1900MB
#P OB98/GEN NMR

erre ene a

0 1
  C      213.090     561.003      50.333
  O      212.457     560.883      51.592
  H      212.333     561.242      49.579
  H      213.575     560.060      50.060
  H      213.831     561.806      50.356
  P      213.392     560.430      52.818
  C      212.095     558.251      53.436
  O      212.392     559.600      53.763
  C      210.607     557.986      53.624
  O      210.273     556.641      53.221
  C      210.124     558.110      55.069
  O      209.948     559.458      55.475
  C      208.809     557.365      54.980
  O      207.822     558.199      54.339
  C      209.196     556.174      54.079
  N      209.621     554.995      54.835
  C      208.682     553.963      54.973
  O      207.557     554.070      54.481
  N      209.025     552.844      55.695
  C      210.209     552.755      56.227
  N      210.489     551.634      56.947
  C      211.233     553.806      56.091
  C      210.874     554.883      55.397
  O      213.607     561.784      53.648
  O      214.653     559.719      52.456
  H      207.073     557.624      54.103
  H      214.073     561.585      54.497
  H      212.198     553.693      56.563
  H      211.577     555.701      55.258
  H      208.361     555.886      53.425
  H      208.407     557.089      55.956
  H      210.788     557.573      55.757
  H      210.058     558.673      52.959
  H      209.750     550.955      57.068
  H      212.682     557.599      54.097
  H      211.305     551.558      57.535
  H      212.374     558.045      52.397
  P      210.225     559.808      57.020
  C      207.721     560.460      57.261
  O      209.078     560.831      57.482
  O      211.530     560.732      56.949
  O      210.424     558.622      57.914
  H      212.140     560.544      57.688
  H      207.076     561.236      57.618
  H      207.510     559.551      57.785
  H      207.557     560.314      56.214

 6  7  8  9  10  11  12  13  14  15  16  26  30  31  32  33  35 0
 6-311+G(2d,p)
 ****
 37  38 0
 6-311+G(2d,p)
 ****
 1  2  3  4  5  17  18  19  20  21  22  23  24  25 0
 3-21G
 ****
 27  28  29  34  36  39  40  41  42  43  44  45  46 0
 3-21G
 ****


