%nproc=1
%NoSave
%Mem=1900MB
#P OB98/GEN NMR

erre ene a

0 1
  C      217.653     570.303     634.440
  O      218.155     570.262     635.757
  P      219.041     571.456     636.359
  C      217.207     572.595     637.763
  O      218.011     572.683     636.605
  C      217.021     573.960     638.424
  O      216.471     574.908     637.453
  C      216.084     573.975     639.649
  O      216.616     574.972     640.538
  C      214.775     574.432     639.057
  O      213.874     574.932     640.034
  C      215.247     575.456     638.023
  N      214.253     575.723     637.001
  C      213.672     577.006     637.006
  O      213.991     577.815     637.895
  N      212.743     577.322     636.039
  C      212.339     576.407     635.230
  N      211.417     576.788     634.288
  C      212.830     575.014     635.265
  C      213.787     574.756     636.142
  O      220.252     571.812     635.557
  O      219.363     570.973     637.855
  H      213.051     575.243     639.570
  H      220.082     570.289     637.841
  H      212.412     574.271     634.591
  H      214.185     573.751     636.247
  H      215.522     576.396     638.508
  H      214.275     573.588     638.553
  H      216.021     572.999     640.149
  H      218.018     574.353     638.693
  H      211.130     577.751     634.292
  H      217.701     571.933     638.481
  H      211.109     576.170     633.552
  H      216.240     572.146     637.517
  P      216.264     574.949     642.105
  C      218.343     573.568     642.656
  O      216.931     573.633     642.724
  O      214.797     575.132     642.432
  O      217.150     576.132     642.735
  H      216.800     576.355     643.619
  H      218.708     572.780     643.338
  H      218.792     574.519     642.940
  H      218.641     573.311     641.624
  H      217.093     569.413     634.244
  H      218.468     570.371     633.750
  H      217.017     571.156     634.327

 3  4  5  6  7  8  9  10  11  12  13  23  27  28  29  30  32 0
 6-311+G(2d,p)
 ****
 34  35 0
 6-311+G(2d,p)
 ****
 1  2  14  15  16  17  18  19  20  21  22  24  25  26 0
 3-21G
 ****
 31  33  36  37  38  39  40  41  42  43  44  45  46 0
 3-21G
 ****


