%nproc=1
%NoSave
%Mem=1900MB
#P OB98/GEN NMR

erre ene a

0 1
  C       30.152     -61.982    -427.115
  O       30.199     -62.334    -428.482
  H       29.207     -62.317    -426.682
  H       30.973     -62.484    -426.594
  H       30.262     -60.903    -426.985
  P       29.282     -61.486    -429.489
  C       29.595     -59.296    -430.846
  O       30.214     -60.315    -430.074
  C       30.601     -58.678    -431.816
  O       31.759     -58.224    -431.056
  C       31.104     -59.637    -432.905
  O       31.237     -58.905    -434.129
  C       32.483     -60.030    -432.412
  O       33.352     -60.431    -433.469
  C       32.926     -58.753    -431.708
  N       37.773     -60.234    -431.300
  C       37.055     -59.780    -432.349
  N       35.776     -59.351    -432.359
  C       35.261     -59.360    -431.117
  C       35.872     -59.789    -429.952
  C       37.192     -60.263    -430.077
  N       37.910     -60.790    -429.030
  N       34.997     -59.698    -428.885
  C       33.871     -59.247    -429.406
  N       33.981     -59.033    -430.751
  O       28.295     -60.717    -428.488
  O       28.536     -62.282    -430.506
  H       34.267     -60.474    -433.126
  H       27.517     -61.275    -428.302
  H       37.569     -59.768    -433.306
  H       32.948     -59.093    -428.866
  H       33.306     -57.994    -432.406
  H       32.397     -60.862    -431.705
  H       30.453     -60.504    -433.064
  H       30.146     -57.787    -432.265
  H       29.223     -58.516    -430.175
  H       38.806     -61.201    -429.237
  H       37.451     -60.918    -428.140
  H       28.750     -59.722    -431.396
  P       29.896     -58.589    -434.950
  C       27.628     -57.413    -434.451
  O       28.992     -57.587    -434.086
  O       29.087     -59.969    -434.880
  O       30.136     -58.165    -436.364
  H       28.566     -60.099    -435.692
  H       27.166     -56.718    -433.782
  H       27.121     -58.354    -434.395
  H       27.572     -57.036    -435.451

 6  7  8  9  10  11  12  13  14  15  25  28  32  33  34  35 0
 6-311+G(2d,p)
 ****
 36  39  40 0
 6-311+G(2d,p)
 ****
 1  2  3  4  5  16  17  18  19  20  21  22  23  24 0
 3-21G
 ****
 26  27  29  30  31  37  38  41  42  43  44  45  46  47 0
 3-21G
 ****
 48 0
 3-21G
 ****


