%nproc=1
%NoSave
%Mem=1900MB
#P OB98/GEN NMR

erre ene a

0 1
  C      411.855     107.633    -480.073
  O      413.070     106.980    -480.385
  H      411.584     107.393    -479.042
  H      411.064     107.279    -480.737
  H      411.964     108.718    -480.167
  P      413.754     107.362    -481.785
  C      413.831     105.252    -483.296
  O      414.491     106.035    -482.310
  C      414.711     104.076    -483.710
  O      415.939     104.553    -484.307
  C      415.125     103.167    -482.557
  O      414.111     102.220    -482.241
  C      416.342     102.486    -483.162
  O      415.919     101.465    -484.087
  C      417.008     103.643    -483.917
  N      421.784     103.664    -482.219
  C      421.120     102.728    -482.989
  N      421.824     101.635    -483.349
  N      419.873     102.847    -483.367
  C      419.288     103.985    -482.921
  C      419.841     104.986    -482.156
  C      421.222     104.846    -481.749
  O      421.867     105.655    -481.090
  N      418.939     105.989    -481.916
  C      417.837     105.587    -482.515
  N      417.993     104.374    -483.137
  O      414.973     108.311    -481.355
  O      412.863     108.037    -482.770
  H      415.307     100.883    -483.603
  H      415.086     109.005    -482.034
  H      422.741     103.517    -481.946
  H      416.904     106.135    -482.529
  H      417.508     103.311    -484.834
  H      416.969     102.000    -482.412
  H      422.774     101.459    -483.051
  H      415.430     103.745    -481.676
  H      421.372     100.951    -483.942
  H      414.172     103.505    -484.478
  H      413.625     105.873    -484.173
  H      412.883     104.888    -482.884
  P      413.288     102.440    -480.878
  C      413.568      99.881    -480.548
  O      412.691     101.001    -480.497
  O      412.000     103.257    -481.366
  O      414.029     103.154    -479.800
  H      411.618     103.757    -480.621
  H      413.034      98.997    -480.270
  H      414.381     100.034    -479.870
  H      413.948      99.771    -481.542

 6  7  8  9  10  11  12  13  14  15  26  29  33  34 0
 6-311+G(2d,p)
 ****
 36  38  39  40  41 0
 6-311+G(2d,p)
 ****
 1  2  3  4  5  16  17  18  19  20  21  22  23  24  25 0
 3-21G
 ****
 27  28  30  31  32  35  37  42  43  44  45  46  47 0
 3-21G
 ****
 48  49 0
 3-21G
 ****


