%nproc=1
%NoSave
%Mem=1900MB
#P OB98/GEN NMR

erre ene a

0 1
  C      125.822    -215.687    -204.172
  O      125.384    -214.436    -204.675
  H      126.735    -215.977    -204.697
  H      125.054    -216.442    -204.353
  H      126.035    -215.618    -203.100
  P      124.263    -213.666    -203.826
  C      122.410    -215.116    -204.929
  O      122.890    -213.807    -204.652
  C      121.010    -215.050    -205.538
  O      120.605    -216.354    -206.017
  C      119.926    -214.591    -204.565
  O      119.870    -213.172    -204.475
  C      118.681    -215.139    -205.256
  O      118.330    -214.292    -206.374
  C      119.177    -216.499    -205.768
  N      115.730    -219.237    -203.239
  C      115.564    -218.120    -204.043
  N      114.295    -217.673    -204.190
  N      116.546    -217.503    -204.651
  C      117.762    -218.058    -204.394
  C      118.054    -219.150    -203.607
  C      116.955    -219.834    -202.959
  O      117.053    -220.833    -202.250
  N      119.396    -219.410    -203.590
  C      119.922    -218.461    -204.345
  N      118.970    -217.606    -204.850
  O      124.665    -212.127    -204.023
  O      124.191    -214.029    -202.381
  H      117.627    -214.752    -206.871
  H      125.113    -211.812    -203.213
  H      114.940    -219.669    -202.786
  H      120.976    -218.351    -204.557
  H      118.708    -216.780    -206.718
  H      117.813    -215.172    -204.596
  H      113.496    -218.087    -203.734
  H      120.030    -215.058    -203.576
  H      114.151    -216.856    -204.776
  H      121.055    -214.386    -206.411
  H      122.375    -215.685    -203.995
  H      123.096    -215.605    -205.625
  P      119.399    -212.524    -203.080
  C      117.861    -211.199    -204.687
  O      118.523    -211.223    -203.438
  O      120.762    -211.910    -202.500
  O      118.776    -213.472    -202.110
  H      121.041    -212.412    -201.711
  H      117.322    -210.280    -204.787
  H      117.179    -212.021    -204.745
  H      118.582    -211.277    -205.474

 6  7  8  9  10  11  12  13  14  15  26  29  33  34 0
 6-311+G(2d,p)
 ****
 36  38  39  40  41 0
 6-311+G(2d,p)
 ****
 1  2  3  4  5  16  17  18  19  20  21  22  23  24  25 0
 3-21G
 ****
 27  28  30  31  32  35  37  42  43  44  45  46  47 0
 3-21G
 ****
 48  49 0
 3-21G
 ****


