%nproc=1
%NoSave
%Mem=1900MB
#P OB98/GEN NMR

erre ene a

0 1
  C        9.699     346.010    -319.580
  O        8.722     345.630    -320.530
  H        9.753     347.100    -319.549
  H       10.677     345.615    -319.867
  H        9.425     345.641    -318.587
  P        8.471     344.056    -320.713
  C        9.930     342.058    -321.514
  O        9.779     343.470    -321.433
  C       10.057     341.639    -322.975
  O       11.308     342.119    -323.515
  C       10.075     340.131    -323.182
  O        8.782     339.559    -323.115
  C       10.710     340.033    -324.561
  O        9.741     340.223    -325.600
  C       11.713     341.192    -324.551
  N       16.248     340.346    -326.735
  C       15.105     340.887    -327.212
  N       13.940     341.090    -326.559
  C       14.041     340.696    -325.278
  C       15.140     340.132    -324.652
  C       16.290     339.961    -325.439
  N       17.447     339.389    -324.965
  N       14.847     339.823    -323.338
  C       13.596     340.201    -323.172
  N       13.069     340.737    -324.314
  O        7.350     343.999    -321.853
  O        8.047     343.335    -319.479
  H        9.014     339.598    -325.413
  H        6.476     343.856    -321.443
  H       15.124     341.186    -328.255
  H       13.030     340.100    -322.252
  H       11.718     341.746    -325.498
  H       11.169     339.057    -324.709
  H       10.745     339.657    -322.453
  H        9.240     342.101    -323.545
  H        9.052     341.574    -321.074
  H       10.820     341.764    -320.950
  H       18.210     339.234    -325.602
  H       17.451     338.994    -324.032
  P        8.651     338.083    -322.505
  C        9.487     335.708    -323.183
  O        9.536     337.110    -323.418
  O        7.145     337.660    -322.843
  O        8.938     337.988    -321.044
  H        6.782     337.116    -322.120
  H       10.132     335.208    -323.875
  H        8.484     335.359    -323.314
  H        9.808     335.502    -322.183

 6  7  8  9  10  11  12  13  14  15  25  28  32  33  34  35 0
 6-311+G(2d,p)
 ****
 36  37  40 0
 6-311+G(2d,p)
 ****
 1  2  3  4  5  16  17  18  19  20  21  22  23  24 0
 3-21G
 ****
 26  27  29  30  31  38  39 41  42  43  44  45  46  47  48 0
 3-21G
 ****


