%nproc=1
%NoSave
%Mem=1900MB
#P OB98/GEN NMR

erre ene a

0 1
  C     -894.955    -616.252    -266.350
  O     -896.265    -616.762    -266.492
  P     -896.799    -617.760    -265.345
  C     -898.341    -616.274    -263.871
  O     -897.049    -616.863    -264.038
  C     -898.829    -616.421    -262.434
  O     -899.052    -617.824    -262.151
  C     -897.857    -615.882    -261.381
  O     -898.626    -615.285    -260.335
  C     -897.190    -617.131    -260.845
  O     -896.673    -616.930    -259.526
  C     -898.324    -618.156    -260.951
  N     -897.827    -619.524    -260.987
  C     -898.249    -620.377    -259.958
  O     -898.936    -619.938    -259.043
  N     -897.841    -621.690    -259.976
  C     -896.996    -622.084    -260.877
  N     -896.618    -623.396    -260.853
  C     -896.431    -621.185    -261.904
  C     -896.903    -619.941    -261.919
  O     -895.495    -618.608    -264.974
  O     -897.939    -618.638    -265.770
  H     -897.414    -616.596    -258.965
  H     -895.732    -619.515    -264.706
  H     -895.701    -621.560    -262.614
  H     -896.567    -619.222    -262.647
  H     -899.016    -618.053    -260.104
  H     -896.351    -617.414    -261.496
  H     -897.159    -615.146    -261.789
  H     -899.790    -615.918    -262.346
  H     -897.011    -623.983    -260.130
  H     -899.047    -616.785    -264.530
  H     -895.968    -623.797    -261.513
  H     -898.291    -615.221    -264.165
  P     -898.206    -613.820    -259.844
  C     -899.370    -612.409    -261.655
  O     -898.145    -612.935    -261.182
  O     -896.649    -614.021    -259.521
  O     -898.927    -613.228    -258.673
  H     -896.281    -613.204    -259.148
  H     -899.162    -611.732    -262.480
  H     -899.880    -611.872    -260.866
  H     -900.000    -613.232    -262.020
  H     -894.732    -615.608    -267.175
  H     -894.257    -617.063    -266.331
  H     -894.885    -615.699    -265.437

 3  4  5  6  7  8  9  10  11  12  13  21  23  27  28  29  30  32 0
 6-311+G(2d,p)
 ****
 34  35 0
 6-311+G(2d,p)
 ****
 1  2  14  15  16  17  18  19  20  22  24  25  26 0
 3-21G
 ****
 31  33  36  37  38  39  40  41  42  43  44  45  46 0
 3-21G
 ****


