%nproc=1
%NoSave
%Mem=1900MB
#P OB98/GEN NMR

erre ene a

0 1
  C     -282.308     341.258    -128.717
  O     -281.157     340.948    -129.486
  P     -280.269     342.155    -130.054
  C     -279.014     342.256    -127.775
  O     -279.697     342.971    -128.795
  C     -277.507     342.523    -127.848
  O     -277.264     343.952    -127.672
  C     -276.690     341.786    -126.780
  O     -275.415     341.456    -127.360
  C     -276.499     342.854    -125.715
  O     -275.419     342.584    -124.836
  C     -276.304     344.087    -126.604
  N     -276.475     345.345    -125.882
  C     -275.410     345.792    -125.105
  O     -274.338     345.189    -124.997
  N     -275.621     346.942    -124.392
  C     -276.801     347.622    -124.308
  O     -276.965     348.579    -123.555
  C     -277.897     347.108    -125.140
  C     -277.689     346.012    -125.881
  O     -281.357     343.143    -130.691
  O     -279.232     341.746    -131.051
  H     -275.316     343.355    -124.249
  H     -281.395     343.031    -131.656
  H     -274.857     347.281    -123.832
  H     -278.841     347.640    -125.115
  H     -278.483     345.598    -126.497
  H     -275.307     344.070    -127.066
  H     -277.413     342.934    -125.113
  H     -277.179     340.884    -126.393
  H     -277.156     342.253    -128.849
  H     -279.196     341.187    -127.903
  H     -279.409     342.547    -126.795
  P     -274.699     340.103    -126.871
  C     -276.385     338.731    -128.324
  O     -275.753     338.914    -127.075
  O     -274.671     340.332    -125.285
  O     -273.338     339.897    -127.469
  H     -275.508     340.693    -124.946
  H     -275.721     338.981    -129.158
  H     -277.279     339.354    -128.374
  H     -276.684     337.680    -128.420
  H     -282.789     340.352    -128.414
  H     -282.984     341.841    -129.307
  H     -282.019     341.815    -127.851

 3  4  5  6  7  8  9  10  11  12  13  23  28  29  30  31  32 0
 6-311+G(2d,p)
 ****
 33  34 0
 6-311+G(2d,p)
 ****
 1  2  14  15  16  17  18  19  20  21  22  24  25  26 0
 3-21G
 ****
 27  35  36  37  38  39  40  41  42  43  44  45 0
 3-21G
 ****


