%nproc=1
%NoSave
%Mem=1900MB
#P OB98/GEN NMR

erre ene a

0 1
  C       33.284     356.767     378.321
  O       32.262     356.887     379.291
  H       33.099     357.490     377.523
  H       33.285     355.761     377.893
  H       34.257     356.979     378.771
  P       32.301     355.830     380.501
  C       34.011     357.479     381.584
  O       33.703     356.141     381.223
  C       33.422     357.792     382.953
  O       33.859     359.090     383.411
  C       31.899     357.841     382.980
  O       31.302     356.556     383.011
  C       31.673     358.599     384.275
  O       31.894     357.722     385.394
  C       32.779     359.678     384.189
  N       32.322     360.923     383.573
  C       31.713     361.856     384.422
  O       31.567     361.613     385.620
  N       31.245     363.034     383.886
  C       31.382     363.266     382.619
  N       30.893     364.440     382.140
  C       32.034     362.320     381.691
  C       32.472     361.184     382.230
  O       32.587     354.434     379.774
  O       31.114     355.823     381.403
  H       31.881     358.277     386.197
  H       32.754     353.733     380.449
  H       32.118     362.554     380.641
  H       32.961     360.440     381.608
  H       33.181     359.904     385.184
  H       30.659     358.994     384.370
  H       31.500     358.440     382.151
  H       33.809     357.048     383.666
  H       30.396     365.041     382.786
  H       33.586     358.148     380.828
  H       30.791     364.627     381.150
  H       35.097     357.617     381.615
  P       29.740     356.468     383.373
  C       28.889     356.025     380.959
  O       28.930     356.918     382.064
  O       29.533     357.698     384.374
  O       29.304     355.169     383.980
  H       28.915     357.464     385.094
  H       28.316     356.462     380.168
  H       28.435     355.104     381.261
  H       29.885     355.836     380.616

 6  7  8  9  10  11  12  13  14  15  16  26  30  31  32  33  35 0
 6-311+G(2d,p)
 ****
 37  38 0
 6-311+G(2d,p)
 ****
 1  2  3  4  5  17  18  19  20  21  22  23  24  25 0
 3-21G
 ****
 27  28  29  34  36  39  40  41  42  43  44  45  46 0
 3-21G
 ****


