%nproc=1
%NoSave
%Mem=1900MB
#P OB98/GEN NMR

erre ene a

0 1
  C     -134.191     486.826     332.144
  O     -133.606     485.561     332.471
  P     -133.641     485.126     334.021
  C     -131.090     485.459     334.463
  O     -132.431     485.880     334.754
  C     -130.188     485.673     335.672
  O     -130.241     484.550     336.589
  C     -128.702     485.828     335.325
  O     -128.389     487.134     334.858
  C     -128.057     485.548     336.662
  O     -128.061     486.743     337.476
  C     -128.997     484.489     337.276
  N     -125.157     481.381     338.458
  C     -125.334     482.726     338.765
  N     -124.358     483.308     339.478
  N     -126.363     483.419     338.374
  C     -127.261     482.690     337.666
  C     -127.209     481.363     337.315
  C     -126.053     480.604     337.735
  O     -125.827     479.424     337.472
  N     -128.320     480.980     336.616
  C     -129.053     482.057     336.549
  N     -128.463     483.134     337.187
  O     -133.156     483.603     333.977
  O     -134.981     485.275     334.659
  H     -127.533     487.411     336.997
  H     -133.526     483.115     334.743
  H     -124.336     480.878     338.799
  H     -130.032     482.129     336.088
  H     -129.190     484.695     338.343
  H     -127.000     485.240     336.584
  H     -123.573     482.815     339.898
  H     -128.391     485.046     334.599
  H     -124.491     484.288     339.750
  H     -130.513     486.566     336.205
  H     -130.701     486.030     333.604
  H     -131.106     484.408     334.146
  P     -127.909     487.280     333.332
  C     -125.453     487.160     334.243
  O     -126.413     486.663     333.311
  O     -127.664     488.846     333.211
  O     -128.854     486.767     332.328
  H     -127.773     489.134     332.260
  H     -125.880     487.286     335.224
  H     -125.046     488.112     333.849
  H     -124.630     486.435     334.283
  H     -134.105     486.997     331.091
  H     -133.681     487.603     332.675
  H     -135.224     486.823     332.421

 3  4  5  6  7  8  9  10  11  12  23  26  30  31  33  0
 6-311+G(2d,p)
 ****
 35  36  37  38 0
 6-311+G(2d,p)
 ****
 1  2  13  14  15  16  17  18  19  20  21  22  24  25  27  28  29 0
 3-21G
 ****
 32  34  39  40  41  42  43  44  45  46  47  48  49 0
 3-21G
 ****


