%nproc=1
%NoSave
%Mem=1900MB
#P OB98/GEN NMR

erre ene a

0 1
  C     -212.498      50.621     384.617
  O     -212.630      51.318     385.841
  H     -213.130      51.111     383.866
  H     -212.835      49.587     384.741
  H     -211.460      50.640     384.274
  P     -211.646      50.875     387.033
  C     -213.403      50.541     388.961
  O     -212.374      51.333     388.386
  C     -214.425      51.425     389.680
  O     -214.865      52.464     388.766
  C     -215.671      50.665     390.157
  O     -216.103      51.238     391.394
  C     -216.700      50.970     389.076
  O     -218.031      50.814     389.549
  C     -216.305      52.402     388.676
  N     -216.780      52.762     387.342
  C     -218.169      52.817     387.161
  O     -218.925      52.548     388.103
  N     -218.661      53.124     385.917
  C     -217.851      53.297     384.925
  N     -218.406      53.572     383.714
  C     -216.380      53.205     385.058
  C     -215.919      52.948     386.285
  O     -210.444      51.920     386.873
  O     -211.227      49.443     386.985
  H     -218.597      51.497     389.129
  H     -210.743      52.835     386.727
  H     -215.745      53.350     384.198
  H     -214.852      52.874     386.473
  H     -216.717      53.125     389.397
  H     -216.560      50.291     388.227
  H     -215.491      49.594     390.283
  H     -213.927      51.929     390.518
  H     -219.420      53.603     383.663
  H     -212.977      49.827     389.673
  H     -217.872      53.672     382.863
  H     -213.884      49.976     388.154
  P     -216.974      50.353     392.408
  C     -218.144      52.488     393.297
  O     -217.466      51.276     393.625
  O     -216.382      49.044     392.803
  O     -218.338      50.122     391.586
  H     -218.623      49.198     391.733
  H     -218.414      53.001     394.197
  H     -219.027      52.262     392.737
  H     -217.500      53.110     392.712

 6  7  8  9  10  11  12  13  14  15  16  26  30  31  32  33  35 0
 6-311+G(2d,p)
 ****
 37  38 0
 6-311+G(2d,p)
 ****
 1  2  3  4  5  17  18  19  20  21  22  23  24  25 0
 3-21G
 ****
 27  28  29  34  36  39  40  41  42  43  44  45  46 0
 3-21G
 ****


