%nproc=1
%NoSave
%Mem=1900MB
#P OB98/GEN NMR

erre ene a

0 1
  C      -72.261     324.149     556.257
  O      -71.599     325.335     556.711
  P      -72.169     326.786     556.332
  C      -70.640     327.133     554.311
  O      -71.993     327.025     554.755
  C      -70.508     327.712     552.892
  O      -69.113     327.879     552.532
  C      -71.163     326.866     551.788
  O      -71.635     327.801     550.812
  C      -69.986     326.071     551.251
  O      -70.231     325.535     549.961
  C      -68.866     327.122     551.338
  N      -67.533     326.516     551.347
  C      -67.058     326.024     550.130
  O      -67.759     326.062     549.121
  N      -65.800     325.462     550.096
  C      -65.131     325.310     551.197
  N      -63.908     324.731     551.097
  C      -65.636     325.733     552.520
  C      -66.825     326.332     552.510
  O      -71.667     327.903     557.191
  O      -73.763     326.626     556.499
  H      -70.809     324.745     550.062
  H      -74.148     327.483     556.756
  H      -65.056     325.568     553.407
  H      -67.290     326.688     553.430
  H      -68.919     327.809     550.484
  H      -69.760     325.232     551.927
  H      -71.968     326.220     552.150
  H      -70.958     328.710     552.906
  H      -63.604     324.429     550.177
  H      -70.183     326.136     554.335
  H      -63.358     324.459     551.895
  H      -70.082     327.756     555.016
  P      -73.194     327.975     550.504
  C      -73.625     325.618     549.606
  O      -73.871     326.534     550.657
  O      -73.502     328.671     549.216
  O      -73.778     328.799     551.755
  H      -74.640     329.189     551.514
  H      -73.947     324.629     549.914
  H      -72.559     325.579     549.355
  H      -74.202     325.915     548.720
  H      -71.733     323.288     556.611
  H      -72.283     324.140     555.187
  H      -73.262     324.133     556.634

 3  4  5  6  7  8  9  10  11  12  13  23  27  28  29  30  32 0
 6-311+G(2d,p)
 ****
 34  35 0
 6-311+G(2d,p)
 ****
 1  2  14  15  16  17  18  19  20  21  22  24  25  26 0
 3-21G
 ****
 31  33  36  37  38  39  40  41  42  43  44  45  46 0
 3-21G
 ****


