%nproc=1
%NoSave
%Mem=1900MB
#P OB98/GEN NMR

erre ene a

0 1
  C      531.716     270.446    -396.591
  O      530.619     270.381    -395.703
  P      530.706     269.521    -394.354
  C      529.581     267.216    -394.643
  O      530.773     267.977    -394.814
  C      528.662     267.412    -395.862
  O      529.411     267.400    -397.083
  C      527.622     266.323    -396.028
  O      526.627     266.196    -395.028
  C      527.154     266.561    -397.452
  O      526.195     267.618    -397.502
  C      528.483     267.005    -398.136
  N      529.039     265.948    -398.985
  C      528.773     266.059    -400.350
  O      528.115     266.985    -400.825
  N      529.264     265.056    -401.145
  C      529.936     263.941    -400.707
  O      530.325     263.076    -401.464
  C      530.173     263.870    -399.254
  C      529.718     264.858    -398.476
  O      529.640     269.822    -393.343
  O      532.190     269.789    -393.837
  H      525.615     267.524    -396.716
  H      532.898     269.523    -394.461
  H      529.081     265.120    -402.120
  H      530.720     263.015    -398.880
  H      529.876     264.830    -397.393
  H      528.306     267.896    -398.754
  H      526.691     265.666    -397.897
  H      528.150     265.341    -396.022
  H      528.182     268.400    -395.763
  H      529.055     267.561    -393.737
  H      529.839     266.155    -394.504
  P      525.701     264.895    -394.847
  C      523.164     265.035    -395.396
  O      524.494     264.983    -395.891
  O      525.387     264.501    -393.457
  O      526.628     263.755    -395.520
  H      526.451     262.900    -395.073
  H      522.472     265.048    -396.250
  H      523.014     265.941    -394.814
  H      522.951     264.156    -394.788
  H      531.463     271.065    -397.426
  H      531.954     269.462    -396.936
  H      532.562     270.861    -396.083

 3  4  5  6  7  8  9  10  11  12  13  23  28  29  30  31  32 0
 6-311+G(2d,p)
 ****
 33  34 0
 6-311+G(2d,p)
 ****
 1  2  14  15  16  17  18  19  20  21  22  24  25  26  27 0
 3-21G
 ****
 35  36  37  38  39  40  41  42  43  44  45 0
 3-21G
 ****


