%nproc=1
%NoSave
%Mem=1900MB
#P OB98/GEN NMR

erre ene a

0 1
  C      109.138      19.950       8.687
  O      109.919      19.661       9.830
  H      108.353      19.194       8.600
  H      109.760      19.918       7.788
  H      108.673      20.934       8.788
  P      111.121      20.677      10.151
  C      112.936      21.551       8.523
  O      112.168      20.437       8.960
  C      114.122      21.088       7.680
  O      113.672      20.295       6.566
  C      114.945      22.220       7.078
  O      115.850      22.749       8.032
  C      115.670      21.482       5.962
  O      116.789      20.756       6.507
  C      114.598      20.494       5.464
  N      114.032      19.984       0.386
  C      114.983      19.533       1.232
  N      115.093      19.742       2.563
  C      114.084      20.507       3.010
  C      113.042      21.040       2.264
  C      113.032      20.742       0.890
  N      112.053      21.197       0.031
  N      112.193      21.776       3.064
  C      112.684      21.644       4.281
  N      113.847      20.917       4.294
  O      111.666      20.619      11.536
  O      110.454      22.076       9.741
  H      117.158      20.206       5.790
  H      109.904      21.972       8.945
  H      115.760      18.920       0.784
  H      112.230      22.040       5.182
  H      115.030      19.517       5.219
  H      116.067      22.160       5.204
  H      114.304      22.993       6.641
  H      114.745      20.439       8.308
  H      113.291      22.130       9.382
  H      112.213      21.082      -0.958
  H      111.382      21.862       0.387
  H      112.275      22.190       7.927
  P      116.432      24.235       7.872
  C      118.216      25.361       6.400
  O      117.395      24.214       6.588
  O      117.050      24.806       9.100
  O      115.185      25.102       7.376
  H      115.201      25.988       7.787
  H      118.810      25.234       5.519
  H      118.857      25.484       7.248
  H      117.598      26.228       6.292

 6  7  8  9  10  11  12  13  14  15  25  28  32  33  34  35 0
 6-311+G(2d,p)
 ****
 36  39  40 0
 6-311+G(2d,p)
 ****
 1  2  3  4  5  16  17  18  19  20  21  22  23  24 0
 3-21G
 ****
 26  27  29  30  31  37  38  41  42  43  44  45  46  47 0
 3-21G
 ****
 48 0
 3-21G
 ****


