%nproc=1
%NoSave
%Mem=1900MB
#P OB98/GEN NMR

erre ene a

0 1
  C     -297.702     305.138     181.087
  O     -297.322     305.709     179.853
  H     -297.147     304.208     181.231
  H     -298.773     304.911     181.089
  H     -297.466     305.821     181.907
  P     -298.100     307.036     179.397
  C     -298.829     305.982     177.135
  O     -299.235     306.578     178.361
  C     -300.062     305.566     176.338
  O     -300.521     304.270     176.787
  C     -301.253     306.498     176.506
  O     -301.145     307.676     175.725
  C     -302.389     305.600     176.046
  O     -302.537     305.620     174.619
  C     -301.941     304.211     176.541
  N     -302.686     303.792     177.725
  C     -303.904     303.158     177.477
  O     -304.339     302.953     176.348
  N     -304.623     302.800     178.584
  C     -304.280     303.054     179.878
  O     -305.003     302.756     180.823
  C     -302.996     303.742     180.077
  C     -302.268     304.079     179.009
  O     -297.028     307.790     178.480
  O     -298.584     307.897     180.517
  H     -296.668     308.560     178.958
  H     -302.517     306.562     174.359
  H     -305.504     302.339     178.426
  H     -302.694     303.961     181.095
  H     -301.321     304.595     179.130
  H     -302.092     303.459     175.758
  H     -303.336     305.920     176.473
  H     -301.399     306.739     177.567
  H     -299.782     305.486     175.278
  H     -298.222     305.096     177.339
  H     -298.223     306.701     176.574
  P     -302.067     308.929     176.126
  C     -303.327     308.575     173.843
  O     -303.399     308.790     175.245
  O     -301.250     310.123     175.446
  O     -302.273     309.055     177.596
  H     -300.736     309.819     174.678
  H     -304.316     308.510     173.441
  H     -302.803     307.663     173.649
  H     -302.808     309.390     173.383

 6  7  8  9  10  11  12  13  14  15  16  27  31  32  33  34  35 0
 6-311+G(2d,p)
 ****
 36  37 0
 6-311+G(2d,p)
 ****
 1  2  3  4  5  17  18  19  20  21  22  23  24  25 0
 3-21G
 ****
 26  28  29  30  38  39  40  41  42  43  44  45 0
 3-21G
 ****


