%nproc=1
%NoSave
%Mem=1900MB
#P OB98/GEN NMR

erre ene a

0 1
  C     1042.345    -602.995    -210.814
  O     1041.340    -603.050    -209.814
  H     1043.310    -602.852    -210.327
  H     1042.168    -602.160    -211.487
  H     1042.367    -603.932    -211.380
  P     1039.818    -603.252    -210.276
  C     1037.625    -603.877    -209.061
  O     1039.048    -603.872    -209.009
  C     1037.063    -604.402    -207.749
  O     1037.439    -605.778    -207.546
  C     1037.548    -603.644    -206.509
  O     1036.805    -602.442    -206.342
  C     1037.280    -604.670    -205.429
  O     1035.869    -604.701    -205.120
  C     1037.698    -605.975    -206.134
  N     1040.934    -609.692    -204.909
  C     1039.545    -609.683    -204.924
  N     1038.944    -610.812    -204.488
  N     1038.832    -608.655    -205.278
  C     1039.564    -607.564    -205.605
  C     1040.944    -607.451    -205.622
  C     1041.731    -608.604    -205.263
  O     1042.960    -608.661    -205.268
  N     1041.330    -606.171    -205.949
  C     1040.196    -605.542    -206.164
  N     1039.104    -606.342    -205.960
  O     1039.609    -604.027    -211.549
  O     1039.238    -601.764    -210.373
  H     1035.680    -603.876    -204.646
  H     1039.338    -601.407    -211.281
  H     1041.435    -610.508    -204.591
  H     1040.125    -604.493    -206.482
  H     1037.102    -606.836    -205.808
  H     1037.812    -604.467    -204.500
  H     1039.428    -611.510    -203.944
  H     1038.624    -603.448    -206.548
  H     1037.929    -610.817    -204.449
  H     1035.964    -604.375    -207.813
  H     1037.320    -604.521    -209.892
  H     1037.251    -602.861    -209.235
  P     1037.258    -601.324    -205.286
  C     1037.217    -598.734    -205.354
  O     1036.655    -599.942    -205.858
  O     1038.740    -601.292    -205.009
  O     1036.365    -601.588    -203.995
  H     1036.767    -602.230    -203.360
  H     1036.732    -597.897    -205.811
  H     1038.263    -598.706    -205.579
  H     1037.079    -598.691    -204.294

 6  7  8  9  10  11  12  13  14  15  26  29  33  34 0
 6-311+G(2d,p)
 ****
 36  38  39  40  41 0
 6-311+G(2d,p)
 ****
 1  2  3  4  5  16  17  18  19  20  21  22  23  24  25 0
 3-21G
 ****
 27  28  30  31  32  35  37  42  43  44  45  46  47 0
 3-21G
 ****
 48  49 0
 3-21G
 ****


