%nproc=1
%NoSave
%Mem=1900MB
#P OB98/GEN NMR

erre ene a

0 1
  C      -61.364     -20.359     352.712
  O      -61.420     -21.521     353.519
  H      -61.854     -20.572     351.756
  H      -60.322     -20.084     352.521
  H      -61.884     -19.534     353.204
  P      -60.697     -21.431     354.947
  C      -62.546     -20.594     356.552
  O      -61.429     -20.251     355.750
  C      -62.711     -19.595     357.696
  O      -61.528     -19.577     358.529
  C      -62.953     -18.160     357.251
  O      -64.324     -17.945     356.963
  C      -62.482     -17.387     358.473
  O      -63.491     -17.374     359.502
  C      -61.263     -18.205     358.923
  N      -57.308     -15.127     359.576
  C      -58.468     -15.260     360.316
  N      -58.614     -14.425     361.367
  N      -59.420     -16.117     360.037
  C      -59.164     -16.845     358.922
  C      -58.053     -16.813     358.112
  C      -56.991     -15.895     358.465
  O      -55.902     -15.791     357.899
  N      -58.157     -17.720     357.085
  C      -59.341     -18.277     357.260
  N      -59.991     -17.775     358.362
  O      -59.260     -20.806     354.597
  O      -60.553     -22.724     355.677
  H      -64.335     -17.093     359.117
  H      -58.589     -21.225     355.166
  H      -56.599     -14.475     359.859
  H      -59.767     -19.046     356.629
  H      -61.141     -18.197     360.010
  H      -62.276     -16.341     358.233
  H      -58.084     -13.571     361.453
  H      -62.321     -17.903     356.393
  H      -59.501     -14.468     361.860
  H      -63.540     -19.947     358.324
  H      -62.397     -21.596     356.966
  H      -63.452     -20.592     355.933
  P      -64.730     -16.606     356.178
  C      -64.511     -17.553     353.771
  O      -64.019     -16.633     354.742
  O      -63.928     -15.472     356.974
  O      -66.195     -16.318     356.166
  H      -64.543     -14.960     357.531
  H      -63.943     -17.457     352.869
  H      -65.540     -17.341     353.569
  H      -64.419     -18.551     354.146

 6  7  8  9  10  11  12  13  14  15  26  29  33  34 0
 6-311+G(2d,p)
 ****
 36  38  39  40  41 0
 6-311+G(2d,p)
 ****
 1  2  3  4  5  16  17  18  19  20  21  22  23  24  25 0
 3-21G
 ****
 27  28  30  31  32  35  37  42  43  44  45  46  47 0
 3-21G
 ****
 48  49 0
 3-21G
 ****


