%nproc=1
%NoSave
%Mem=1900MB
#P OB98/GEN NMR

erre ene a

0 1
  C     -728.996    1016.814    1610.255
  O     -728.014    1016.969    1611.281
  P     -726.529    1017.361    1610.816
  C     -726.020    1014.812    1610.782
  O     -725.857    1016.065    1610.133
  C     -725.764    1013.670    1609.779
  O     -724.418    1013.761    1609.236
  C     -725.858    1012.293    1610.406
  O     -727.208    1011.926    1610.620
  C     -725.144    1011.449    1609.349
  O     -726.011    1011.181    1608.252
  C     -724.008    1012.393    1608.909
  N     -719.699    1009.661    1608.622
  C     -720.778    1009.703    1607.839
  N     -721.895    1010.460    1607.974
  C     -721.806    1011.232    1609.076
  C     -720.767    1011.293    1609.989
  C     -719.661    1010.437    1609.722
  N     -718.558    1010.378    1610.562
  N     -721.036    1012.201    1610.981
  C     -722.240    1012.673    1610.702
  N     -722.723    1012.117    1609.565
  O     -725.721    1017.527    1612.201
  O     -726.469    1018.643    1610.014
  H     -725.470    1010.835    1607.514
  H     -725.528    1018.468    1612.376
  H     -720.760    1009.052    1606.965
  H     -722.767    1013.377    1611.315
  H     -723.849    1012.356    1607.830
  H     -724.801    1010.470    1609.751
  H     -725.298    1012.251    1611.360
  H     -726.483    1013.774    1608.957
  H     -727.033    1014.727    1611.181
  H     -717.844    1009.697    1610.347
  H     -718.550    1010.909    1611.410
  H     -725.322    1014.762    1611.625
  P     -727.763    1011.983    1612.144
  C     -726.938    1009.602    1612.676
  O     -726.785    1010.993    1612.940
  O     -729.116    1011.112    1612.026
  O     -727.911    1013.350    1612.713
  H     -728.960    1010.301    1611.523
  H     -726.167    1009.040    1613.248
  H     -726.790    1009.399    1611.593
  H     -727.936    1009.275    1612.988
  H     -729.935    1016.554    1610.697
  H     -728.691    1016.039    1609.584
  H     -729.097    1017.733    1609.716

 3  4  5  6  7  8  9  10  11  12  22  25  29  30  31  32 0
 6-311+G(2d,p)
 ****
 33  36  37 0
 6-311+G(2d,p)
 ****
 1  2  13  14  15  16  17  18  19  20  21  23  24  26 0
 3-21G
 ****
 27  28  34  35  38  39  40  41  42  43  44  45  46  47  48 0
 3-21G
 ****


