%nproc=1
%NoSave
%Mem=1900MB
#P OB98/GEN NMR

erre ene a

0 1
  C     -314.664    -899.080     237.096
  O     -315.483    -898.040     236.599
  H     -314.886    -900.000     236.549
  H     -314.866    -899.240     238.158
  H     -313.603    -898.840     236.954
  P     -315.195    -896.560     237.145
  C     -317.693    -896.000     236.565
  O     -316.620    -895.900     237.486
  C     -318.897    -895.190     237.073
  O     -319.500    -895.820     238.210
  C     -318.517    -893.790     237.580
  O     -318.160    -892.910     236.547
  C     -319.807    -893.420     238.302
  O     -320.812    -892.980     237.377
  C     -320.213    -894.770     238.941
  N     -319.912    -894.820     240.372
  C     -320.696    -893.990     241.183
  O     -321.581    -893.280     240.680
  N     -320.440    -893.950     242.539
  C     -319.499    -894.710     243.032
  N     -319.295    -894.630     244.373
  C     -318.672    -895.610     242.219
  C     -318.932    -895.620     240.905
  O     -314.757    -895.780     235.815
  O     -314.219    -896.480     238.272
  H     -320.788    -893.590     236.614
  H     -315.394    -895.850     235.082
  H     -317.904    -896.230     242.681
  H     -318.364    -896.260     240.239
  H     -321.284    -894.950     238.813
  H     -319.652    -892.600     239.012
  H     -317.725    -893.870     238.333
  H     -319.635    -895.130     236.260
  H     -319.865    -893.970     244.894
  H     -317.981    -897.040     236.404
  H     -318.580    -895.130     244.881
  H     -317.352    -895.600     235.599
  P     -316.901    -891.930     236.699
  C     -317.309    -890.400     234.650
  O     -317.364    -890.520     236.069
  O     -315.617    -892.460     236.174
  O     -316.890    -891.610     238.269
  H     -317.698    -891.190     238.618
  H     -317.640    -889.424     234.362
  H     -317.943    -891.138     234.205
  H     -316.303    -890.548     234.318

 6  7  8  9  10  11  12  13  14  15  16  26  30  31  32  33  35 0
 6-311+G(2d,p)
 ****
 37  38 0
 6-311+G(2d,p)
 ****
 1  2  3  4  5  17  18  19  20  21  22  23  24  25 0
 3-21G
 ****
 27  28  29  34  36  39  40  41  42  43  44  45  46 0
 3-21G
 ****


