%nproc=1
%NoSave
%Mem=1900MB
#P OB98/GEN NMR

erre ene a

0 1
  C     -108.770     150.293      71.196
  O     -109.973     150.082      71.903
  H     -108.710     151.346      70.911
  H     -108.757     149.685      70.288
  H     -107.904     150.050      71.818
  P     -110.224     148.660      72.596
  C     -108.915     149.046      74.788
  O     -110.190     148.904      74.179
  C     -108.617     147.856      75.707
  O     -107.282     148.031      76.274
  C     -109.594     147.710      76.891
  O     -109.670     146.312      77.202
  C     -108.853     148.479      77.970
  O     -109.399     148.280      79.248
  C     -107.430     147.966      77.709
  N     -106.366     148.711      78.370
  C     -105.228     148.008      78.755
  O     -105.055     146.805      78.573
  N     -104.258     148.747      79.381
  C     -104.307     150.085      79.639
  O     -103.393     150.699      80.174
  C     -105.537     150.770      79.215
  C     -106.492     150.066      78.605
  O     -109.365     147.541      72.110
  O     -111.776     148.373      72.317
  H     -111.864     147.738      71.581
  H     -110.307     148.654      79.271
  H     -103.425     148.256      79.663
  H     -105.613     151.830      79.415
  H     -107.406     150.546      78.273
  H     -107.357     146.910      77.991
  H     -108.923     149.552      77.778
  H     -110.595     148.090      76.669
  H     -108.588     146.940      75.104
  H     -108.917     149.972      75.372
  H     -108.151     149.118      74.007
  P     -110.462     145.247      76.300
  C     -108.478     144.757      74.710
  O     -109.389     144.232      75.669
  O     -111.368     145.867      75.287
  O     -111.284     144.344      77.334
  H     -112.072     143.977      76.892
  H     -107.825     143.978      74.375
  H     -107.901     145.539      75.157
  H     -109.023     145.148      73.877

 6  7  8  9  10  11  12  13  14  15  16  27  31  32  33  34  35 0
 6-311+G(2d,p)
 ****
 36  37 0
 6-311+G(2d,p)
 ****
 1  2  3  4  5  17  18  19  20  21  22  23  24  25 0
 3-21G
 ****
 26  28  29  30  38  39  40  41  42  43  44  45 0
 3-21G
 ****


