%nproc=1
%NoSave
%Mem=1900MB
#P OB98/GEN NMR

erre ene a

0 1
  C      260.211    -305.677      86.588
  O      260.194    -306.863      87.360
  H      260.561    -305.919      85.583
  H      260.898    -304.953      87.036
  H      259.206    -305.249      86.522
  P      259.533    -306.761      88.824
  C      261.866    -306.653      90.021
  O      260.627    -306.026      89.735
  C      262.864    -305.635      90.579
  O      264.064    -306.339      90.984
  C      263.271    -304.557      89.580
  O      263.431    -303.323      90.280
  C      264.618    -305.037      89.065
  O      265.406    -303.962      88.554
  C      265.186    -305.741      90.304
  N      266.193    -306.744      89.956
  C      267.528    -306.325      89.971
  O      267.809    -305.156      90.241
  N      268.510    -307.223      89.635
  C      268.184    -308.418      89.247
  N      269.200    -309.255      88.906
  C      266.786    -308.887      89.166
  C      265.857    -308.012      89.542
  O      259.588    -308.285      89.310
  O      258.171    -306.154      88.839
  H      266.333    -304.281      88.466
  H      260.418    -308.737      89.081
  H      266.564    -309.887      88.822
  H      264.803    -308.275      89.521
  H      265.643    -305.016      90.986
  H      264.470    -305.758      88.250
  H      262.557    -304.426      88.766
  H      262.437    -305.197      91.488
  H      270.145    -308.890      88.957
  H      262.280    -307.108      89.116
  H      269.061    -310.186      88.542
  H      261.683    -307.447      90.752
  P      262.281    -302.210      90.178
  C      263.384    -300.506      88.585
  O      262.376    -301.494      88.745
  O      262.170    -301.283      91.342
  O      260.944    -303.088      90.028
  H      260.237    -302.651      90.544
  H      263.340    -300.110      87.592
  H      264.345    -300.947      88.751
  H      263.226    -299.718      89.291

 6  7  8  9  10  11  12  13  14  15  16  26  30  31  32  33  35 0
 6-311+G(2d,p)
 ****
 37  38 0
 6-311+G(2d,p)
 ****
 1  2  3  4  5  17  18  19  20  21  22  23  24  25 0
 3-21G
 ****
 27  28  29  34  36  39  40  41  42  43  44  45  46 0
 3-21G
 ****


