%nproc=1
%NoSave
%Mem=1900MB
#P OB98/GEN NMR

erre ene a

0 1
  C     -256.745      55.674     601.141
  O     -256.920      56.294     602.399
  H     -257.274      54.723     601.140
  H     -255.679      55.481     600.976
  H     -257.139      56.302     600.338
  P     -256.489      57.836     602.522
  C     -254.202      57.448     603.689
  O     -254.880      57.875     602.513
  C     -252.712      57.782     603.590
  O     -252.567      59.209     603.331
  C     -251.919      57.460     604.865
  O     -250.634      56.949     604.495
  C     -251.762      58.814     605.538
  O     -250.621      58.869     606.400
  C     -251.678      59.738     604.334
  N     -250.334      63.764     607.064
  C     -249.680      62.557     606.865
  N     -248.493      62.400     607.494
  N     -250.149      61.600     606.112
  C     -251.328      61.910     605.526
  C     -252.076      63.051     605.641
  C     -251.559      64.103     606.500
  O     -252.101      65.179     606.737
  N     -253.235      62.973     604.908
  C     -253.189      61.782     604.343
  N     -252.043      61.098     604.679
  O     -256.865      58.197     604.036
  O     -257.151      58.764     601.561
  H     -250.783      58.243     607.139
  H     -257.569      58.872     604.046
  H     -249.928      64.465     607.668
  H     -253.948      61.370     603.697
  H     -250.664      59.777     603.904
  H     -252.652      59.035     606.137
  H     -248.045      63.116     608.040
  H     -252.423      56.740     605.511
  H     -247.979      61.542     607.327
  H     -252.291      57.261     602.729
  H     -254.329      56.366     603.800
  H     -254.638      57.950     604.560
  P     -250.377      55.384     604.737
  C     -249.276      55.519     607.086
  O     -250.406      55.106     606.325
  O     -248.828      55.208     604.358
  O     -251.252      54.491     603.914
  H     -248.752      54.730     603.503
  H     -249.431      55.274     608.116
  H     -249.146      56.576     606.987
  H     -248.402      55.017     606.727

 6  7  8  9  10  11  12  13  14  15  26  29  33  34 0
 6-311+G(2d,p)
 ****
 36  38  39  40  41 0
 6-311+G(2d,p)
 ****
 1  2  3  4  5  16  17  18  19  20  21  22  23  24  25 0
 3-21G
 ****
 27  28  30  31  32  35  37  42  43  44  45  46  47 0
 3-21G
 ****
 48  49 0
 3-21G
 ****


