%nproc=1
%NoSave
%Mem=1900MB
#P OB98/GEN NMR

erre ene a

0 1
  C     1139.833    1904.485    -133.352
  O     1138.575    1904.969    -133.778
  H     1140.540    1904.568    -134.189
  H     1139.753    1903.441    -133.068
  H     1140.207    1905.085    -132.529
  P     1137.332    1904.900    -132.765
  C     1137.301    1907.450    -132.382
  O     1137.477    1906.172    -131.794
  C     1137.704    1908.569    -131.385
  O     1139.062    1908.252    -130.929
  C     1137.724    1909.948    -132.024
  O     1136.950    1910.914    -131.290
  C     1139.203    1910.235    -132.215
  O     1139.563    1911.605    -132.242
  C     1139.876    1909.442    -131.094
  N     1141.259    1909.062    -131.355
  C     1142.232    1909.975    -130.982
  O     1142.036    1911.075    -130.455
  N     1143.527    1909.615    -131.260
  C     1143.930    1908.450    -131.860
  O     1145.103    1908.158    -132.066
  C     1142.849    1907.524    -132.226
  C     1141.573    1907.861    -131.987
  O     1137.138    1903.595    -132.087
  O     1136.077    1905.271    -133.667
  H     1139.196    1912.013    -131.440
  H     1135.575    1904.470    -133.891
  H     1144.260    1910.268    -131.006
  H     1143.101    1906.591    -132.717
  H     1140.754    1907.210    -132.230
  H     1139.842    1910.000    -130.168
  H     1139.521    1909.812    -133.195
  H     1137.249    1909.935    -133.014
  H     1137.040    1908.523    -130.511
  H     1136.236    1907.557    -132.650
  H     1137.906    1907.539    -133.294
  P     1135.494    1911.405    -131.700
  C     1134.370    1910.738    -129.437
  O     1134.431    1910.577    -130.832
  O     1135.257    1911.507    -133.171
  O     1135.416    1912.885    -131.072
  H     1134.864    1913.407    -131.683
  H     1133.604    1910.106    -129.038
  H     1134.147    1911.759    -129.205
  H     1135.312    1910.472    -129.006

 6  7  8  9  10  11  12  13  14  15  16  26  31  32  33  34  35 0
 6-311+G(2d,p)
 ****
 36  37 0
 6-311+G(2d,p)
 ****
 1  2  3  4  5  17  18  19  20  21  22  23  24  25 0
 3-21G
 ****
 27  28  29  30  38  39  40  41  42  43  44  45 0
 3-21G
 ****


