%nproc=1
%NoSave
%Mem=1900MB
#P OB98/GEN NMR

erre ene a

0 1
  C      113.341     609.715     206.473
  O      114.490     609.778     205.616
  P      114.905     608.446     204.827
  C      116.872     607.479     206.237
  O      115.498     607.394     205.878
  C      117.394     606.120     206.718
  O      116.691     605.649     207.879
  C      117.263     605.020     205.687
  O      118.317     605.055     204.735
  C      117.367     603.773     206.559
  O      118.759     603.514     206.865
  C      116.621     604.204     207.822
  N      113.317     600.742     209.644
  C      114.659     600.862     209.772
  N      115.472     601.803     209.242
  C      114.758     602.691     208.531
  C      113.397     602.696     208.310
  C      112.652     601.666     208.905
  N      111.290     601.551     208.775
  N      113.028     603.769     207.520
  C      114.155     604.406     207.269
  N      115.234     603.795     207.859
  O      116.199     608.905     203.997
  O      113.838     607.920     203.923
  H      118.784     602.695     207.401
  H      116.220     608.443     203.138
  H      115.141     600.102     210.380
  H      114.244     605.321     206.689
  H      117.102     603.831     208.742
  H      116.975     602.875     206.069
  H      116.269     605.051     205.198
  H      118.459     606.249     206.992
  H      117.007     608.230     207.023
  H      110.818     600.792     209.261
  H      110.784     602.250     208.252
  H      117.452     607.839     205.371
  P      117.945     605.424     203.221
  C      119.145     603.412     202.108
  O      117.922     604.028     202.423
  O      119.255     606.164     202.697
  O      116.728     606.271     203.082
  H      119.020     606.821     202.014
  H      118.961     602.361     201.853
  H      119.850     603.443     202.955
  H      119.603     603.911     201.246
  H      113.185     610.670     206.931
  H      113.502     608.978     207.232
  H      112.480     609.451     205.896

 3  4  5  6  7  8  9  10  11  12  22  25  29  30  31  32 0
 6-311+G(2d,p)
 ****
 33  36  37 0
 6-311+G(2d,p)
 ****
 1  2  13  14  15  16  17  18  19  20  21  23  24  26 0
 3-21G
 ****
 27  28  34  35  38  39  40  41  42  43  44  45  46  47  48 0
 3-21G
 ****


