%nproc=1
%NoSave
%Mem=1900MB
#P OB98/GEN NMR

erre ene a

0 1
  C      -29.997     119.622    -893.160
  O      -29.518     119.843    -894.490
  P      -27.972     120.216    -894.720
  C      -28.415     122.552    -895.700
  O      -27.823     121.810    -894.630
  C      -28.176     124.029    -895.490
  O      -28.413     124.398    -894.120
  C      -26.752     124.498    -895.800
  O      -26.542     124.583    -897.190
  C      -26.707     125.836    -895.060
  O      -27.309     126.868    -895.840
  C      -27.573     125.534    -893.810
  N      -26.613     126.966    -889.010
  C      -27.354     127.534    -889.980
  N      -27.537     127.103    -891.250
  C      -26.817     125.983    -891.480
  C      -25.984     125.320    -890.590
  C      -25.913     125.830    -889.280
  N      -25.213     125.234    -888.270
  N      -25.411     124.233    -891.200
  C      -25.869     124.253    -892.450
  N      -26.785     125.253    -892.630
  O      -27.347     119.581    -895.920
  O      -27.250     119.698    -893.380
  H      -27.098     127.731    -895.400
  H      -26.590     119.012    -893.600
  H      -27.897     128.432    -889.700
  H      -25.581     123.548    -893.230
  H      -28.245     126.376    -893.570
  H      -25.695     126.154    -894.820
  H      -26.031     123.817    -895.340
  H      -28.899     124.586    -896.120
  H      -29.486     122.336    -895.720
  H      -25.353     125.600    -887.340
  H      -24.950     124.244    -888.370
  H      -27.971     122.218    -896.650
  P      -25.071     124.884    -897.760
  C      -25.588     127.007    -899.120
  O      -24.972     126.473    -897.970
  O      -24.639     124.054    -898.930
  O      -24.126     124.629    -896.480
  H      -23.246     124.288    -896.770
  H      -24.972     126.809    -900.000
  H      -25.732     128.075    -899.000
  H      -26.590     126.536    -899.270
  H      -31.040     119.386    -893.191
  H      -29.849     120.506    -892.576
  H      -29.460     118.809    -892.718

 3  4  5  6  7  8  9  10  11  12  22  25  29  30  31  32 0
 6-311+G(2d,p)
 ****
 33  36  37 0
 6-311+G(2d,p)
 ****
 1  2  13  14  15  16  17  18  19  20  21  23  24  26 0
 3-21G
 ****
 27  28  34  35  38  39  40  41  42  43  44  45  46  47  48 0
 3-21G
 ****


