%nproc=1
%NoSave
%Mem=1900MB
#P OB98/GEN NMR

erre ene a

0 1
  C      -62.381     -81.006     -15.361
  O      -62.591     -80.104     -16.429
  H      -62.907     -81.938     -15.583
  H      -62.784     -80.592     -14.433
  H      -61.318     -81.225     -15.240
  P      -61.801     -78.709     -16.427
  C      -64.047     -77.755     -15.593
  O      -62.630     -77.705     -15.495
  C      -64.668     -77.593     -14.207
  O      -64.190     -78.630     -13.322
  C      -64.320     -76.275     -13.527
  O      -65.070     -75.206     -14.067
  C      -64.636     -76.609     -12.079
  O      -66.045     -76.500     -11.822
  C      -64.170     -78.078     -11.986
  N      -62.847     -78.217     -11.378
  C      -62.802     -78.810     -10.120
  O      -63.805     -79.178      -9.510
  N      -61.556     -78.941      -9.567
  C      -60.395     -78.446     -10.084
  O      -59.316     -78.511      -9.505
  C      -60.506     -77.807     -11.403
  C      -61.706     -77.725     -11.981
  O      -61.438     -78.171     -17.770
  O      -60.497     -79.017     -15.549
  H      -66.453     -77.311     -12.182
  H      -59.724     -79.104     -16.137
  H      -61.504     -79.356      -8.650
  H      -59.605     -77.415     -11.853
  H      -61.809     -77.252     -12.950
  H      -64.881     -78.667     -11.393
  H      -64.131     -75.942     -11.380
  H      -63.245     -76.078     -13.617
  H      -65.757     -77.706     -14.303
  H      -64.337     -78.724     -16.011
  H      -64.386     -76.961     -16.266
  P      -64.332     -74.044     -14.882
  C      -64.751     -72.360     -12.986
  O      -63.777     -72.978     -13.820
  O      -65.112     -73.461     -16.013
  O      -62.997     -74.745     -15.418
  H      -62.989     -74.725     -16.393
  H      -64.268     -71.673     -12.323
  H      -65.259     -73.109     -12.416
  H      -65.458     -71.833     -13.593

 6  7  8  9  10  11  12  13  14  15  16  26  31  32  33  34  35 0
 6-311+G(2d,p)
 ****
 36  37 0
 6-311+G(2d,p)
 ****
 1  2  3  4  5  17  18  19  20  21  22  23  24  25 0
 3-21G
 ****
 27  28  29  30  38  39  40  41  42  43  44  45 0
 3-21G
 ****


