%nproc=1
%NoSave
%Mem=1900MB
#P OB98/GEN NMR

erre ene a

0 1
  C      603.244    -363.789     -86.566
  O      602.291    -362.731     -86.673
  P      601.077    -362.657     -85.634
  C      599.591    -363.396     -87.616
  O      599.826    -363.469     -86.215
  C      598.238    -364.038     -87.954
  O      598.260    -365.468     -87.720
  C      597.102    -363.518     -87.084
  O      596.701    -362.178     -87.291
  C      596.050    -364.603     -87.252
  O      595.286    -364.416     -88.444
  C      596.919    -365.876     -87.358
  N      596.922    -366.665     -86.126
  C      598.154    -367.198     -85.748
  O      599.174    -367.068     -86.409
  N      598.153    -367.924     -84.586
  C      597.068    -368.194     -83.805
  O      597.124    -368.873     -82.784
  C      595.790    -367.624     -84.268
  C      595.777    -366.900     -85.391
  O      600.762    -361.293     -85.107
  O      601.585    -363.607     -84.438
  H      595.915    -364.272     -89.174
  H      601.339    -363.177     -83.591
  H      599.038    -368.314     -84.292
  H      594.903    -367.821     -83.677
  H      594.843    -366.470     -85.749
  H      596.562    -366.517     -88.165
  H      595.339    -364.609     -86.413
  H      597.435    -363.562     -86.034
  H      598.033    -363.880     -89.015
  H      600.392    -363.899     -88.152
  H      599.618    -362.349     -87.926
  P      596.993    -361.002     -86.251
  C      594.566    -360.107     -86.036
  O      595.658    -360.730     -85.399
  O      597.734    -359.808     -86.759
  O      597.920    -361.755     -85.175
  H      598.568    -361.114     -84.816
  H      593.759    -359.990     -85.301
  H      594.205    -360.728     -86.858
  H      594.853    -359.118     -86.403
  H      603.981    -363.684     -87.335
  H      602.746    -364.730     -86.675
  H      603.719    -363.746     -85.608

 3  4  5  6  7  8  9  10  11  12  13  23  28  29  30  31  32 0
 6-311+G(2d,p)
 ****
 33  34 0
 6-311+G(2d,p)
 ****
 1  2  14  15  16  17  18  19  20  21  22  24  25  26  27 0
 3-21G
 ****
 35  36  37  38  39  40  41  42  43  44  45 0
 3-21G
 ****


