%nproc=1
%NoSave
%Mem=1900MB
#P OB98/GEN NMR

erre ene a

0 1
  C     -239.503     475.827     322.237
  O     -240.152     474.567     322.245
  P     -239.327     473.193     322.066
  C     -238.209     472.011     320.053
  O     -239.020     473.086     320.495
  C     -237.951     472.126     318.543
  O     -237.301     473.395     318.275
  C     -237.048     471.009     317.971
  O     -237.522     470.732     316.643
  C     -235.683     471.668     317.928
  O     -234.810     471.045     317.009
  C     -236.070     473.108     317.567
  N     -235.030     474.072     317.928
  C     -233.764     473.891     317.370
  O     -233.517     472.937     316.624
  N     -232.773     474.804     317.672
  C     -233.005     475.756     318.521
  N     -232.009     476.661     318.741
  C     -234.307     475.910     319.218
  C     -235.259     475.064     318.850
  O     -239.978     471.989     322.653
  O     -237.884     473.514     322.664
  H     -233.987     471.567     316.956
  H     -237.831     473.387     323.649
  H     -234.440     476.706     319.934
  H     -236.251     475.122     319.296
  H     -236.293     473.191     316.497
  H     -235.221     471.622     318.918
  H     -237.078     470.096     318.567
  H     -238.916     472.139     318.025
  H     -231.207     476.615     318.121
  H     -238.741     471.079     320.247
  H     -232.217     477.578     319.118
  H     -237.269     472.002     320.611
  P     -236.913     469.457     315.872
  C     -234.567     468.724     315.029
  O     -235.361     469.749     315.580
  O     -237.563     469.612     314.412
  O     -237.252     468.111     316.433
  H     -237.606     468.740     313.984
  H     -233.545     469.104     314.890
  H     -234.953     468.417     314.051
  H     -234.531     467.854     315.702
  H     -240.228     476.603     322.370
  H     -239.002     475.964     321.302
  H     -238.789     475.866     323.033

 3  4  5  6  7  8  9  10  11  12  13  23  27  28  29  30  32 0
 6-311+G(2d,p)
 ****
 34  35 0
 6-311+G(2d,p)
 ****
 1  2  14  15  16  17  18  19  20  21  22  24  25  26 0
 3-21G
 ****
 31  33  36  37  38  39  40  41  42  43  44  45  46 0
 3-21G
 ****


