%nproc=1
%NoSave
%Mem=1900MB
#P OB98/GEN NMR

erre ene a

0 1
  C     -364.288     427.865    -683.070
  O     -364.858     427.194    -684.181
  P     -363.914     426.191    -685.011
  C     -364.156     424.141    -683.421
  O     -363.307     425.155    -683.944
  C     -363.329     422.917    -683.024
  O     -362.839     422.230    -684.201
  C     -362.091     423.236    -682.197
  O     -362.397     423.435    -680.831
  C     -361.283     421.966    -682.393
  O     -361.767     420.939    -681.505
  C     -361.581     421.605    -683.850
  N     -358.141     420.144    -687.261
  C     -359.161     419.420    -686.669
  N     -359.238     418.110    -686.985
  N     -360.030     419.935    -685.840
  C     -359.823     421.266    -685.606
  C     -358.855     422.086    -686.141
  C     -357.899     421.488    -687.041
  O     -356.938     422.057    -687.561
  N     -358.978     423.360    -685.679
  C     -360.017     423.327    -684.868
  N     -360.545     422.061    -684.756
  O     -362.662     427.106    -685.399
  O     -364.558     425.579    -686.218
  H     -361.780     421.323    -680.610
  H     -362.150     426.690    -686.118
  H     -357.490     419.697    -687.880
  H     -360.419     424.178    -684.336
  H     -361.705     420.529    -683.985
  H     -360.219     422.106    -682.166
  H     -358.558     417.633    -687.564
  H     -361.548     424.085    -682.623
  H     -359.934     417.546    -686.514
  H     -363.992     422.227    -682.487
  H     -364.889     423.859    -684.183
  H     -364.690     424.539    -682.555
  P     -361.370     424.324    -679.983
  C     -361.832     426.636    -681.085
  O     -360.948     425.535    -680.954
  O     -360.053     423.412    -679.930
  O     -361.850     424.700    -678.620
  H     -359.526     423.621    -679.137
  H     -361.290     427.461    -681.559
  H     -362.202     426.965    -680.106
  H     -362.674     426.356    -681.728
  H     -365.025     428.494    -682.617
  H     -363.463     428.462    -683.399
  H     -363.945     427.145    -682.356

 3  4  5  6  7  8  9  10  11  12  23  26  30  31 0
 6-311+G(2d,p)
 ****
 33  35  36  37  38 0
 6-311+G(2d,p)
 ****
 1  2  13  14  15  16  17  18  19  20  21  22  24  25 0
 3-21G
 ****
 27  28  29  32  34  39  40  41  42  43  44  45  46  47  48  49 0
 3-21G
 ****


