%nproc=1
%NoSave
%Mem=1900MB
#P OB98/GEN NMR

erre ene a

0 1
  C     -895.988     916.428    -497.302
  O     -895.668     915.275    -496.545
  H     -897.068     916.590    -497.265
  H     -895.678     916.288    -498.344
  H     -895.478     917.315    -496.879
  P     -894.118     914.959    -496.326
  C     -894.558     913.767    -494.022
  O     -894.028     913.690    -495.344
  C     -894.808     912.349    -493.492
  O     -893.628     911.532    -493.634
  C     -895.078     912.315    -491.993
  O     -896.368     912.828    -491.652
  C     -894.918     910.821    -491.713
  O     -896.098     910.102    -492.122
  C     -893.718     910.481    -492.638
  N     -892.478     910.328    -491.886
  C     -892.598     909.646    -490.674
  O     -893.688     909.204    -490.292
  N     -891.468     909.493    -489.888
  C     -890.338     909.955    -490.304
  N     -889.258     909.794    -489.482
  C     -890.158     910.645    -491.593
  C     -891.268     910.813    -492.319
  O     -893.638     916.175    -495.384
  O     -893.308     914.795    -497.577
  H     -896.848     910.549    -491.685
  H     -894.178     916.273    -494.585
  H     -889.188     911.020    -491.901
  H     -891.238     911.312    -493.276
  H     -893.918     909.535    -493.179
  H     -894.758     910.609    -490.656
  H     -894.288     912.837    -491.441
  H     -895.608     911.902    -494.060
  H     -889.408     909.327    -488.588
  H     -895.498     914.337    -494.020
  H     -888.328     910.135    -489.674
  H     -893.828     914.287    -493.409
  P     -896.538     913.846    -490.446
  C     -898.988     913.762    -491.203
  O     -898.108     913.855    -490.095
  O     -895.938     915.217    -490.639
  O     -895.928     913.046    -489.193
  H     -896.368     912.205    -488.995
  H     -900.000     913.777    -490.857
  H     -898.804     912.848    -491.729
  H     -898.823     914.591    -491.860

 6  7  8  9  10  11  12  13  14  15  16  26  30  31  32  33  35 0
 6-311+G(2d,p)
 ****
 37  38 0
 6-311+G(2d,p)
 ****
 1  2  3  4  5  17  18  19  20  21  22  23  24  25 0
 3-21G
 ****
 27  28  29  34  36  39  40  41  42  43  44  45  46 0
 3-21G
 ****


