%nproc=1
%NoSave
%Mem=1900MB
#P OB98/GEN NMR

erre ene a

0 1
  C      274.390     415.848     398.210
  O      273.328     415.608     399.112
  H      274.068     415.565     397.204
  H      275.261     415.242     398.480
  H      274.664     416.909     398.204
  P      273.485     416.082     400.634
  C      272.896     413.672     401.355
  O      273.791     414.769     401.503
  C      273.685     412.363     401.322
  O      274.704     412.419     400.296
  C      274.415     412.046     402.619
  O      273.528     411.570     403.608
  C      275.440     411.032     402.134
  O      274.852     409.727     402.022
  C      275.809     411.595     400.742
  N      277.063     412.351     400.748
  C      278.144     411.751     401.386
  O      278.070     410.661     401.957
  N      279.311     412.465     401.380
  C      279.470     413.734     400.909
  O      280.519     414.367     401.004
  C      278.291     414.329     400.262
  C      277.161     413.620     400.214
  O      272.385     416.947     401.159
  O      274.890     416.854     400.647
  H      274.802     409.365     402.929
  H      274.729     417.818     400.683
  H      280.103     412.054     401.852
  H      278.380     415.330     399.860
  H      276.276     414.043     399.746
  H      275.903     410.779     400.012
  H      276.285     410.944     402.812
  H      274.949     412.942     402.977
  H      272.993     411.551     401.061
  H      272.344     413.792     400.414
  H      272.185     413.675     402.190
  P      273.136     412.505     404.849
  C      274.861     411.065     406.099
  O      274.289     412.367     405.954
  O      271.747     412.331     405.359
  O      273.352     413.991     404.292
  H      272.502     414.475     404.321
  H      275.614     411.089     406.858
  H      275.299     410.763     405.171
  H      274.097     410.369     406.376

 6  7  8  9  10  11  12  13  14  15  16  26  31  32  33  34  35 0
 6-311+G(2d,p)
 ****
 36  37 0
 6-311+G(2d,p)
 ****
 1  2  3  4  5  17  18  19  20  21  22  23  24  25 0
 3-21G
 ****
 27  28  29  30  38  39  40  41  42  43  44  45 0
 3-21G
 ****


