%nproc=1
%NoSave
%Mem=1900MB
#P OB98/GEN NMR

erre ene a

0 1
  C     -370.694    -982.623     471.792
  O     -371.928    -982.639     472.527
  P     -372.384    -984.034     473.170
  C     -372.939    -985.217     470.931
  O     -372.138    -985.202     472.100
  C     -372.552    -986.374     469.994
  O     -372.798    -987.656     470.633
  C     -373.332    -986.373     468.677
  O     -372.497    -986.953     467.665
  C     -374.473    -987.344     468.966
  O     -375.063    -987.830     467.765
  C     -373.734    -988.386     469.813
  N     -377.325    -991.923     469.722
  C     -376.631    -991.327     468.686
  N     -376.924    -991.763     467.441
  N     -375.748    -990.383     468.851
  C     -375.538    -990.074     470.159
  C     -376.156    -990.591     471.268
  C     -377.163    -991.613     471.065
  O     -377.814    -992.167     471.949
  N     -375.689    -990.002     472.422
  C     -374.790    -989.136     471.999
  N     -374.637    -989.164     470.634
  O     -373.983    -983.897     473.219
  O     -371.827    -984.279     474.534
  H     -375.527    -988.667     467.990
  H     -374.278    -983.777     474.131
  H     -378.010    -992.634     469.538
  H     -374.229    -988.455     472.627
  H     -373.170    -989.092     469.197
  H     -375.247    -986.833     469.559
  H     -377.570    -992.519     467.244
  H     -373.687    -985.400     468.344
  H     -376.405    -991.372     466.662
  H     -371.476    -986.312     469.794
  H     -372.835    -984.262     470.393
  H     -373.992    -985.273     471.223
  P     -372.417    -986.173     466.266
  C     -373.141    -987.682     464.279
  O     -373.543    -986.812     465.326
  O     -371.044    -986.692     465.619
  O     -372.447    -984.686     466.379
  H     -370.692    -986.036     464.991
  H     -373.332    -988.716     464.579
  H     -372.077    -987.570     464.044
  H     -373.720    -987.443     463.386
  H     -370.513    -981.636     471.421
  H     -370.759    -983.306     470.971
  H     -369.891    -982.915     472.436

 3  4  5  6  7  8  9  10  11  12  23  26  30  31 0
 6-311+G(2d,p)
 ****
 33  35  36  37  38 0
 6-311+G(2d,p)
 ****
 1  2  13  14  15  16  17  18  19  20  21  22  24  25 0
 3-21G
 ****
 27  28  29  32  34  39  40  41  42  43  44  45  46  47  48  49 0
 3-21G
 ****


