%nproc=1
%NoSave
%Mem=1900MB
#P OB98/GEN NMR

erre ene a

0 1
  C      245.489    -283.457    -782.811
  O      245.927    -284.800    -782.834
  H      246.231    -282.823    -782.311
  H      245.365    -283.111    -783.839
  H      244.529    -283.385    -782.294
  P      246.271    -285.461    -781.414
  C      243.846    -286.377    -781.371
  O      245.227    -286.667    -781.205
  C      243.201    -287.414    -782.288
  O      243.518    -287.125    -783.664
  C      243.666    -288.847    -782.060
  O      243.030    -289.437    -780.931
  C      243.223    -289.498    -783.357
  O      241.816    -289.806    -783.290
  C      243.467    -288.384    -784.389
  N      245.695    -290.602    -788.452
  C      244.428    -290.650    -787.980
  N      243.913    -290.047    -786.888
  C      244.846    -289.309    -786.262
  C      246.173    -289.169    -786.628
  C      246.598    -289.857    -787.770
  N      247.898    -289.816    -788.233
  N      246.828    -288.324    -785.752
  C      245.913    -287.967    -784.874
  N      244.696    -288.542    -785.140
  O      245.779    -284.359    -780.357
  O      247.706    -285.814    -781.204
  H      241.589    -290.257    -784.126
  H      246.391    -284.357    -779.595
  H      243.734    -291.250    -788.558
  H      246.082    -287.289    -784.044
  H      242.639    -288.309    -785.100
  H      243.749    -290.429    -783.572
  H      244.758    -288.901    -781.976
  H      242.115    -287.333    -782.167
  H      243.734    -285.382    -781.818
  H      248.093    -290.167    -789.152
  H      248.563    -289.245    -787.721
  H      243.364    -286.384    -780.388
  P      243.955    -290.254    -779.902
  C      244.317    -288.409    -778.108
  O      243.656    -289.622    -778.454
  O      245.427    -289.713    -780.235
  O      243.867    -291.736    -780.009
  H      246.091    -290.385    -779.984
  H      244.023    -288.111    -777.123
  H      244.049    -287.645    -778.807
  H      245.376    -288.560    -778.134

 6  7  8  9  10  11  12  13  14  15  25  28  32  33  34  35 0
 6-311+G(2d,p)
 ****
 36  39  40 0
 6-311+G(2d,p)
 ****
 1  2  3  4  5  16  17  18  19  20  21  22  23  24 0
 3-21G
 ****
 26  27  29  30  31  37  38  41  42  43  44  45  46  47  48 0
 3-21G
 ****


