%nproc=1
%NoSave
%Mem=1900MB
#P OB98/GEN NMR

erre ene a

0 1
  C       60.625    -129.338      11.296
  O       61.363    -130.505      10.991
  H       59.571    -129.610      11.405
  H       60.713    -128.612      10.483
  H       60.970    -128.894      12.234
  P       62.959    -130.402      10.875
  C       64.633    -129.328       9.245
  O       63.274    -129.667       9.482
  C       64.884    -129.126       7.751
  O       64.783    -130.411       7.082
  C       63.889    -128.167       7.084
  O       64.588    -127.394       6.109
  C       62.914    -129.100       6.389
  O       62.290    -128.489       5.262
  C       63.814    -130.280       6.023
  N       60.613    -132.772       3.008
  C       61.263    -131.568       2.818
  N       61.008    -130.914       1.663
  N       62.093    -131.048       3.686
  C       62.266    -131.816       4.789
  C       61.681    -133.022       5.094
  C       60.753    -133.581       4.133
  O       60.139    -134.634       4.250
  N       62.093    -133.477       6.324
  C       62.922    -132.546       6.760
  N       63.053    -131.511       5.870
  O       63.701    -131.686      11.078
  O       63.358    -129.305      11.968
  H       61.659    -129.146       4.892
  H       63.690    -129.732      12.780
  H       59.977    -133.122       2.310
  H       63.446    -132.566       7.708
  H       64.349    -130.119       5.078
  H       62.131    -129.408       7.094
  H       60.394    -131.261       0.943
  H       63.390    -127.505       7.798
  H       61.491    -130.039       1.491
  H       65.915    -128.778       7.616
  H       65.261    -130.148       9.617
  H       64.882    -128.414       9.796
  P       65.500    -126.170       6.603
  C       65.290    -123.608       6.792
  O       64.605    -124.838       6.583
  O       66.835    -126.051       5.946
  O       65.655    -126.456       8.176
  H       66.514    -126.101       8.479
  H       64.590    -122.799       6.756
  H       66.027    -123.476       6.028
  H       65.768    -123.624       7.749

 6  7  8  9  10  11  12  13  14  15  26  29  33  34 0
 6-311+G(2d,p)
 ****
 36  38  39  40  41 0
 6-311+G(2d,p)
 ****
 1  2  3  4  5  16  17  18  19  20  21  22  23  24  25 0
 3-21G
 ****
 27  28  30  31  32  35  37  42  43  44  45  46  47 0
 3-21G
 ****
 48  49 0
 3-21G
 ****


