%nproc=1
%NoSave
%Mem=1900MB
#P OB98/GEN NMR

erre ene a

0 1
  C       54.012     232.177     277.264
  O       53.041     231.483     278.023
  H       54.532     231.463     276.620
  H       54.741     232.647     277.931
  H       53.536     232.937     276.639
  P       52.047     232.370     278.910
  C       49.929     231.164     277.930
  O       50.624     232.384     278.162
  C       48.744     231.410     276.999
  O       49.182     231.881     275.709
  C       47.947     230.157     276.674
  O       47.188     229.693     277.767
  C       47.108     230.659     275.507
  O       45.995     231.438     275.969
  C       48.130     231.554     274.761
  N       48.660     230.915     273.566
  C       48.947     231.771     272.492
  O       48.758     232.983     272.599
  N       49.411     231.222     271.324
  C       49.598     229.946     271.237
  N       50.051     229.465     270.047
  C       49.336     229.011     272.351
  C       48.869     229.558     273.472
  O       52.587     233.855     278.667
  O       51.950     231.974     280.348
  H       45.419     230.827     276.466
  H       52.660     234.094     277.728
  H       49.515     227.952     272.235
  H       48.649     228.945     274.334
  H       47.665     232.504     274.464
  H       46.699     229.841     274.913
  H       48.613     229.371     276.293
  H       48.111     232.183     277.451
  H       50.202     230.130     269.300
  H       49.594     230.720     278.871
  H       50.202     228.485     269.852
  H       50.635     230.466     277.468
  P       47.398     228.206     278.333
  C       46.800     228.988     280.712
  O       47.779     228.366     279.885
  O       48.335     227.354     277.547
  O       45.904     227.629     278.409
  H       45.303     228.131     278.988
  H       47.163     229.039     281.717
  H       45.896     228.415     280.687
  H       46.605     229.977     280.352

 6  7  8  9  10  11  12  13  14  15  16  26  30  31  32  33  35 0
 6-311+G(2d,p)
 ****
 37  38 0
 6-311+G(2d,p)
 ****
 1  2  3  4  5  17  18  19  20  21  22  23  24  25 0
 3-21G
 ****
 27  28  29  34  36  39  40  41  42  43  44  45  46 0
 3-21G
 ****


