%nproc=1
%NoSave
%Mem=1900MB
#P OB98/GEN NMR

erre ene a

0 1
  C     -385.171     224.523    -183.938
  O     -384.324     223.823    -183.042
  P     -384.576     224.032    -181.470
  C     -386.185     221.990    -181.392
  O     -386.013     223.387    -181.168
  C     -386.262     221.246    -180.059
  O     -385.090     221.525    -179.274
  C     -387.443     221.643    -179.196
  O     -388.630     221.040    -179.661
  C     -386.991     221.147    -177.826
  O     -387.339     219.767    -177.637
  C     -385.454     221.327    -177.890
  N     -384.986     222.420    -177.054
  C     -385.027     222.190    -175.671
  O     -385.463     221.124    -175.235
  N     -384.615     223.192    -174.826
  C     -384.200     224.316    -175.316
  N     -383.801     225.271    -174.432
  C     -384.161     224.606    -176.763
  C     -384.569     223.624    -177.567
  O     -384.840     225.604    -181.353
  O     -383.458     223.574    -180.593
  H     -388.266     219.772    -177.318
  H     -384.603     225.931    -180.464
  H     -383.808     225.564    -177.122
  H     -384.573     223.751    -178.645
  H     -384.952     220.409    -177.562
  H     -387.465     221.708    -177.015
  H     -387.549     222.738    -179.172
  H     -386.282     220.166    -180.271
  H     -383.844     225.046    -173.448
  H     -385.334     221.607    -181.964
  H     -383.443     226.173    -174.714
  H     -387.100     221.834    -181.975
  P     -390.024     221.673    -179.192
  C     -390.051     223.644    -180.829
  O     -389.884     223.242    -179.484
  O     -389.897     221.620    -177.594
  O     -391.270     221.018    -179.680
  H     -390.739     221.891    -177.186
  H     -390.088     224.738    -180.865
  H     -390.986     223.251    -181.233
  H     -389.207     223.303    -181.433
  H     -384.893     224.293    -184.945
  H     -385.073     225.576    -183.773
  H     -386.186     224.229    -183.772

 3  4  5  6  7  8  9  10  11  12  13  21  23  27  28  29  30  32 0
 6-311+G(2d,p)
 ****
 34  35 0
 6-311+G(2d,p)
 ****
 1  2  14  15  16  17  18  19  20  22  24  25  26 0
 3-21G
 ****
 31  33  36  37  38  39  40  41  42  43  44  45  46 0
 3-21G
 ****


