%nproc=1
%NoSave
%Mem=1900MB
#P OB98/GEN NMR

erre ene a

0 1
  C      881.110    -569.301     377.601
  O      879.696    -569.276     377.685
  H      881.441    -568.395     377.091
  H      881.439    -570.167     377.016
  H      881.552    -569.332     378.596
  P      878.956    -570.426     378.527
  C      879.327    -569.374     380.853
  O      879.635    -570.455     379.976
  C      878.220    -569.786     381.809
  O      878.497    -571.098     382.365
  C      878.076    -568.855     383.020
  O      877.411    -567.668     382.656
  C      877.299    -569.758     383.975
  O      875.891    -569.753     383.660
  C      877.933    -571.137     383.708
  N      878.927    -571.500     384.693
  C      878.450    -571.883     385.940
  O      877.254    -571.885     386.255
  N      879.410    -572.237     386.866
  C      880.759    -572.150     386.688
  O      881.570    -572.394     387.580
  C      881.207    -571.717     385.361
  C      880.299    -571.423     384.434
  O      878.845    -571.758     377.845
  O      877.505    -569.798     378.810
  H      875.490    -570.490     384.165
  H      876.845    -570.228     378.239
  H      879.074    -572.505     387.790
  H      882.277    -571.649     385.182
  H      880.595    -571.099     383.447
  H      877.158    -571.902     383.687
  H      877.386    -569.421     385.007
  H      879.047    -568.639     383.445
  H      877.273    -569.861     381.239
  H      878.993    -568.523     380.251
  H      880.245    -569.095     381.398
  P      878.249    -566.320     382.413
  C      877.177    -566.133     380.074
  O      878.399    -566.116     380.823
  O      879.534    -566.217     383.170
  O      877.251    -565.145     382.824
  H      877.630    -564.632     383.568
  H      877.393    -565.989     379.036
  H      876.537    -565.347     380.417
  H      876.689    -567.075     380.210

 6  7  8  9  10  11  12  13  14  15  16  26  31  32  33  34  35 0
 6-311+G(2d,p)
 ****
 36  37 0
 6-311+G(2d,p)
 ****
 1  2  3  4  5  17  18  19  20  21  22  23  24  25 0
 3-21G
 ****
 27  28  29  30  38  39  40  41  42  43  44  45 0
 3-21G
 ****


