%nproc=1
%NoSave
%Mem=1900MB
#P OB98/GEN NMR

erre ene a

0 1
  C     -437.878     361.570      51.310
  O     -436.821     360.679      51.020
  H     -437.742     362.479      50.722
  H     -437.864     361.835      52.372
  H     -438.843     361.128      51.051
  P     -436.878     359.192      51.614
  C     -437.758     357.898      49.561
  O     -436.638     358.193      50.383
  C     -437.465     356.692      48.657
  O     -438.715     356.276      48.019
  C     -436.453     356.977      47.531
  O     -435.769     355.742      47.261
  C     -437.388     357.348      46.394
  O     -436.736     357.399      45.149
  C     -438.470     356.278      46.597
  N     -439.708     356.493      45.859
  C     -439.958     355.681      44.761
  O     -439.208     354.787      44.368
  N     -441.132     355.925      44.093
  C     -442.061     356.866      44.422
  O     -443.110     357.018      43.808
  C     -441.739     357.701      45.591
  C     -440.601     357.477      46.246
  O     -438.063     358.876      52.464
  O     -435.511     359.064      52.442
  H     -435.696     359.170      53.394
  H     -437.391     357.616      44.454
  H     -441.330     355.341      43.298
  H     -442.449     358.467      45.870
  H     -440.341     358.070      47.121
  H     -438.068     355.290      46.337
  H     -437.797     358.351      46.559
  H     -435.724     357.747      47.789
  H     -437.135     355.853      49.284
  H     -437.967     358.779      48.942
  H     -438.626     357.694      50.194
  P     -434.207     355.517      47.551
  C     -434.207     353.864      49.537
  O     -434.016     354.038      48.142
  O     -433.587     356.584      48.392
  O     -433.517     355.446      46.107
  H     -432.583     355.726      46.176
  H     -434.050     352.837      49.793
  H     -435.205     354.148      49.799
  H     -433.511     354.476      50.071

 6  7  8  9  10  11  12  13  14  15  16  27  31  32  33  34  35 0
 6-311+G(2d,p)
 ****
 36  37 0
 6-311+G(2d,p)
 ****
 1  2  3  4  5  17  18  19  20  21  22  23  24  25 0
 3-21G
 ****
 26  28  29  30  38  39  40  41  42  43  44  45 0
 3-21G
 ****


