%nproc=1
%NoSave
%Mem=1900MB
#P OB98/GEN NMR

erre ene a

0 1
  C      -32.626     -18.638     405.420
  O      -32.406     -18.517     406.826
  P      -31.390     -17.498     407.511
  C      -29.152     -18.662     406.762
  O      -30.012     -17.529     406.700
  C      -27.675     -18.238     406.734
  O      -26.843     -19.435     406.726
  C      -27.318     -17.428     405.477
  O      -26.468     -16.315     405.737
  C      -26.796     -18.497     404.530
  O      -25.998     -17.972     403.477
  C      -26.097     -19.459     405.489
  N      -23.071     -23.144     403.664
  C      -22.769     -21.825     403.944
  N      -21.508     -21.423     403.696
  N      -23.642     -20.969     404.412
  C      -24.886     -21.478     404.544
  C      -25.308     -22.763     404.286
  C      -24.329     -23.718     403.817
  O      -24.532     -24.899     403.573
  N      -26.647     -22.909     404.548
  C      -27.036     -21.717     404.946
  N      -25.998     -20.810     404.966
  O      -31.297     -17.568     408.999
  O      -31.989     -16.047     407.133
  H      -25.828     -18.693     402.846
  H      -31.772     -15.456     407.879
  H      -22.356     -23.766     403.329
  H      -28.046     -21.452     405.242
  H      -25.073     -19.148     405.707
  H      -27.663     -18.983     404.066
  H      -20.825     -21.993     403.220
  H      -28.213     -16.968     405.043
  H      -21.357     -20.413     403.690
  H      -27.452     -17.674     407.648
  H      -29.383     -19.260     405.873
  H      -29.372     -19.268     407.642
  P      -26.873     -14.819     406.119
  C      -26.713     -13.886     403.735
  O      -27.561     -14.136     404.839
  O      -25.485     -14.031     406.244
  O      -27.655     -14.688     407.385
  H      -25.381     -13.693     407.155
  H      -27.218     -13.195     403.055
  H      -26.515     -14.825     403.201
  H      -25.768     -13.444     404.061
  H      -33.358     -19.397     405.238
  H      -31.709     -18.904     404.937
  H      -32.976     -17.704     405.032

 3  4  5  6  7  8  9  10  11  12  23  26  30  31 0
 6-311+G(2d,p)
 ****
 33  35  36  37  38 0
 6-311+G(2d,p)
 ****
 1  2  13  14  15  16  17  18  19  20  21  22  24  25 0
 3-21G
 ****
 27  28  29  32  34  39  40  41  42  43  44  45  46  47  48  49 0
 3-21G
 ****


