%nproc=1
%NoSave
%Mem=1900MB
#P OB98/GEN NMR

erre ene a

0 1
  C      144.827    -706.225     536.614
  O      143.866    -705.355     537.165
  H      145.763    -706.119     537.168
  H      145.011    -705.968     535.569
  H      144.497    -707.265     536.687
  P      142.363    -705.458     536.610
  C      141.358    -705.703     538.995
  O      141.525    -706.289     537.707
  C      140.705    -706.711     539.944
  O      141.471    -707.944     539.944
  C      140.620    -706.216     541.396
  O      139.371    -706.647     541.952
  C      141.764    -706.933     542.091
  O      141.559    -707.078     543.492
  C      141.816    -708.253     541.301
  N      143.139    -708.872     541.399
  C      143.357    -709.726     542.493
  O      142.467    -709.910     543.316
  N      144.588    -710.302     542.647
  C      145.556    -709.977     541.833
  N      146.771    -710.543     542.067
  C      145.393    -709.029     540.720
  C      144.167    -708.523     540.553
  O      142.484    -706.492     535.394
  O      141.740    -704.168     536.200
  H      141.320    -706.192     543.863
  H      141.841    -706.292     534.691
  H      146.233    -708.766     540.085
  H      143.951    -707.821     539.761
  H      141.071    -708.956     541.680
  H      142.692    -706.364     541.948
  H      140.696    -705.123     541.485
  H      139.704    -706.955     539.560
  H      146.858    -711.182     542.858
  H      140.705    -704.820     538.911
  H      147.602    -710.337     541.532
  H      142.335    -705.388     539.385
  P      138.125    -705.641     541.827
  C      136.851    -707.244     540.227
  O      137.380    -705.947     540.443
  O      138.832    -704.226     541.581
  O      137.242    -705.618     543.040
  H      138.747    -703.663     542.367
  H      136.389    -707.285     539.263
  H      136.124    -707.463     540.981
  H      137.641    -707.964     540.275

 6  7  8  9  10  11  12  13  14  15  16  26  30  31  32  33  35 0
 6-311+G(2d,p)
 ****
 37  38 0
 6-311+G(2d,p)
 ****
 1  2  3  4  5  17  18  19  20  21  22  23  24  25 0
 3-21G
 ****
 27  28  29  34  36  39  40  41  42  43  44  45  46 0
 3-21G
 ****


