%nproc=1
%NoSave
%Mem=1900MB
#P OB98/GEN NMR

erre ene a

0 1
  C     -549.848    -381.573      18.061
  O     -548.512    -382.061      18.036
  P     -547.357    -381.033      18.458
  C     -546.421    -378.892      17.290
  O     -547.029    -380.165      17.161
  C     -546.703    -378.037      16.061
  O     -548.088    -377.602      16.070
  C     -545.860    -376.780      15.956
  O     -544.588    -377.091      15.423
  C     -546.725    -375.908      15.053
  O     -546.549    -376.275      13.665
  C     -548.146    -376.242      15.534
  N     -550.750    -371.979      16.283
  C     -550.270    -372.526      15.118
  N     -550.560    -371.864      13.971
  N     -549.565    -373.635      15.070
  C     -549.343    -374.180      16.289
  C     -549.745    -373.719      17.520
  C     -550.576    -372.531      17.552
  O     -551.109    -372.060      18.556
  N     -549.303    -374.529      18.537
  C     -548.657    -375.494      17.907
  N     -548.659    -375.343      16.541
  O     -546.077    -381.983      18.633
  O     -547.632    -380.229      19.693
  H     -545.614    -376.133      13.423
  H     -545.929    -382.200      19.574
  H     -551.310    -371.143      16.265
  H     -548.192    -376.330      18.394
  H     -548.864    -376.252      14.715
  H     -546.463    -374.849      15.136
  H     -551.069    -370.998      13.931
  H     -545.760    -376.301      16.943
  H     -550.199    -372.252      13.103
  H     -546.577    -378.675      15.181
  H     -545.346    -379.026      17.402
  H     -546.807    -378.396      18.206
  P     -543.394    -376.047      15.704
  C     -543.314    -373.462      15.807
  O     -543.896    -374.603      15.223
  O     -542.290    -376.453      14.627
  O     -542.847    -376.105      17.096
  H     -541.402    -376.346      15.005
  H     -543.320    -372.646      15.071
  H     -542.267    -373.640      16.111
  H     -543.885    -373.156      16.685
  H     -550.518    -382.351      17.760
  H     -549.938    -380.746      17.389
  H     -550.093    -381.255      19.053

 3  4  5  6  7  8  9  10  11  12  23  26  30  31 0
 6-311+G(2d,p)
 ****
 33  35  36  37  38 0
 6-311+G(2d,p)
 ****
 1  2  13  14  15  16  17  18  19  20  21  22  24  25 0
 3-21G
 ****
 27  28  29  32  34  39  40  41  42  43  44  45  46  47  48  49 0
 3-21G
 ****


