%nproc=1
%NoSave
%Mem=1900MB
#P OB98/GEN NMR

erre ene a

0 1
  C      312.136     -26.941      46.457
  O      312.244     -26.804      45.050
  P      311.568     -25.560      44.281
  C      313.834     -24.370      44.661
  O      312.419     -24.284      44.751
  C      314.400     -23.066      44.099
  O      313.907     -22.870      42.760
  C      314.007     -21.816      44.880
  O      314.759     -21.703      46.076
  C      314.260     -20.736      43.832
  O      315.662     -20.425      43.769
  C      313.819     -21.435      42.530
  N      312.471     -21.054      42.113
  C      312.388     -20.205      41.002
  O      313.399     -19.812      40.421
  N      311.142     -19.841      40.555
  C      310.081     -20.266      41.168
  N      308.869     -19.928      40.639
  C      310.126     -21.115      42.373
  C      311.347     -21.471      42.783
  O      310.097     -25.434      44.469
  O      312.025     -25.737      42.764
  H      315.881     -19.937      44.590
  H      311.405     -26.299      42.229
  H      309.213     -21.427      42.862
  H      311.472     -22.108      43.644
  H      314.528     -21.211      41.723
  H      313.720     -19.800      44.033
  H      312.938     -21.843      45.131
  H      315.499     -23.155      44.054
  H      308.888     -19.498      39.718
  H      314.090     -25.195      43.990
  H      308.030     -20.435      40.872
  H      314.253     -24.581      45.658
  P      314.133     -20.830      47.270
  C      312.474     -22.793      47.635
  O      312.640     -21.395      47.482
  O      313.922     -19.392      46.603
  O      314.977     -20.769      48.500
  H      314.634     -18.781      46.875
  H      311.460     -22.986      48.001
  H      313.192     -23.192      48.354
  H      312.593     -23.293      46.668
  H      312.649     -27.826      46.770
  H      311.104     -27.012      46.730
  H      312.573     -26.088      46.933

 3  4  5  6  7  8  9  10  11  12  13  23  27  28  29  30  32 0
 6-311+G(2d,p)
 ****
 34  35 0
 6-311+G(2d,p)
 ****
 1  2  14  15  16  17  18  19  20  21  22  24  25  26 0
 3-21G
 ****
 31  33  36  37  38  39  40  41  42  43  44  45  46 0
 3-21G
 ****


