%nproc=1
%NoSave
%Mem=1900MB
#P OB98/GEN NMR

erre ene a

0 1
  C      207.257      73.302    -892.770
  O      207.694      72.042    -892.310
  H      206.510      73.177    -893.560
  H      206.807      73.847    -891.940
  H      208.104      73.876    -893.150
  P      208.355      71.059    -893.390
  C      210.642      71.517    -892.260
  O      209.915      71.439    -893.480
  C      211.946      72.288    -892.470
  O      212.736      71.575    -893.460
  C      211.764      73.733    -892.960
  O      212.387      74.643    -892.060
  C      212.520      73.786    -894.290
  O      213.253      74.994    -894.470
  C      213.440      72.569    -894.220
  N      217.263      71.667    -897.470
  C      217.239      71.779    -896.110
  N      216.180      71.914    -895.300
  C      215.028      71.898    -896.010
  C      214.896      71.766    -897.380
  C      216.084      71.658    -898.120
  N      216.105      71.591    -899.500
  N      213.561      71.794    -897.740
  C      212.911      71.991    -896.620
  N      213.759      72.081    -895.540
  O      207.763      71.597    -894.780
  O      208.074      69.609    -893.190
  H      213.816      75.099    -893.680
  H      207.431      70.844    -895.310
  H      218.213      71.775    -895.620
  H      211.836      72.129    -896.520
  H      214.378      72.793    -893.700
  H      211.800      73.692    -895.110
  H      210.709      74.001    -893.110
  H      212.515      72.275    -891.540
  H      210.880      70.507    -891.910
  H      217.009      71.636    -899.950
  H      215.243      71.698    -900.000
  H      210.022      72.012    -891.500
  P      211.511      75.911    -891.590
  C      211.109      74.999    -889.180
  O      210.530      75.411    -890.420
  O      210.517      76.137    -892.830
  O      212.317      77.132    -891.290
  H      210.237      77.065    -892.870
  H      210.334      74.696    -888.508
  H      211.654      75.815    -888.752
  H      211.773      74.178    -889.352

 6  7  8  9  10  11  12  13  14  15  25  28  32  33  34  35 0
 6-311+G(2d,p)
 ****
 36  39  40 0
 6-311+G(2d,p)
 ****
 1  2  3  4  5  16  17  18  19  20  21  22  23  24 0
 3-21G
 ****
 26  27  29  30  31  37  38  41  42  43  44  45  46  47  48 0
 3-21G
 ****


