%nproc=1
%NoSave
%Mem=1900MB
#P OB98/GEN NMR

erre ene a

0 1
  C     -310.998    -154.635    -330.303
  O     -309.756    -154.092    -330.710
  H     -310.963    -154.823    -329.228
  H     -311.174    -155.582    -330.822
  H     -311.811    -153.936    -330.517
  P     -309.681    -153.529    -332.210
  C     -310.379    -151.017    -331.936
  O     -310.751    -152.332    -332.323
  C     -310.649    -150.038    -333.076
  O     -310.318    -148.690    -332.685
  C     -309.798    -150.274    -334.313
  O     -310.195    -151.417    -335.036
  C     -310.027    -148.967    -335.066
  O     -311.233    -149.011    -335.840
  C     -310.154    -147.942    -333.911
  N     -309.016    -147.043    -333.866
  C     -309.011    -146.033    -334.838
  O     -309.945    -145.940    -335.636
  N     -307.939    -145.181    -334.893
  C     -306.945    -145.339    -334.076
  N     -305.897    -144.483    -334.206
  C     -306.908    -146.395    -333.042
  C     -307.965    -147.205    -332.990
  O     -310.360    -154.707    -333.055
  O     -308.313    -153.158    -332.670
  H     -311.099    -149.705    -336.520
  H     -311.209    -155.012    -332.688
  H     -306.064    -146.476    -332.373
  H     -308.026    -148.006    -332.264
  H     -311.065    -147.339    -334.035
  H     -309.212    -148.754    -335.759
  H     -308.738    -150.323    -334.037
  H     -311.721    -150.078    -333.315
  H     -305.941    -143.811    -334.964
  H     -309.322    -150.982    -331.647
  H     -305.040    -144.561    -333.680
  H     -310.971    -150.748    -331.053
  P     -309.362    -151.929    -336.306
  C     -307.429    -152.828    -334.855
  O     -307.810    -151.912    -335.878
  O     -309.651    -151.226    -337.588
  O     -309.678    -153.501    -336.339
  H     -309.416    -153.985    -335.537
  H     -306.382    -152.726    -334.657
  H     -307.635    -153.828    -335.176
  H     -307.983    -152.618    -333.964

 6  7  8  9  10  11  12  13  14  15  16  26  30  31  32  33  35 0
 6-311+G(2d,p)
 ****
 37  38 0
 6-311+G(2d,p)
 ****
 1  2  3  4  5  17  18  19  20  21  22  23  24  25 0
 3-21G
 ****
 27  28  29  34  36  39  40  41  42  43  44  45  46 0
 3-21G
 ****


