%nproc=1
%NoSave
%Mem=1900MB
#P OB98/GEN NMR

erre ene a

0 1
  C      227.880    -546.971     482.905
  O      227.587    -547.795     481.789
  H      227.372    -547.384     483.781
  H      227.514    -545.958     482.735
  H      228.956    -546.955     483.100
  P      228.333    -547.506     480.399
  C      229.209    -549.879     479.894
  O      228.273    -548.861     479.542
  C      228.952    -551.122     479.036
  O      227.727    -551.772     479.449
  C      228.782    -550.827     477.548
  O      230.034    -550.566     476.935
  C      228.094    -552.098     477.076
  O      229.052    -553.157     476.879
  C      227.160    -552.410     478.270
  N      225.790    -551.977     478.052
  C      224.831    -552.994     477.912
  O      225.113    -554.192     477.934
  N      223.547    -552.576     477.708
  C      223.146    -551.280     477.527
  O      221.989    -550.961     477.258
  C      224.186    -550.262     477.655
  C      225.446    -550.647     477.912
  O      229.682    -546.885     480.505
  O      227.306    -546.548     479.619
  H      229.585    -552.899     476.098
  H      227.642    -545.632     479.635
  H      222.849    -553.292     477.592
  H      223.900    -549.221     477.536
  H      226.226    -549.908     478.003
  H      227.161    -553.489     478.479
  H      227.564    -551.955     476.143
  H      228.103    -549.978     477.416
  H      229.785    -551.826     479.199
  H      229.072    -550.135     480.953
  H      230.220    -549.502     479.736
  P      230.226    -549.243     476.048
  C      232.490    -548.615     477.108
  O      231.798    -548.972     475.907
  O      229.415    -548.062     476.483
  O      229.811    -549.715     474.577
  H      229.050    -549.183     474.269
  H      233.526    -548.460     476.890
  H      232.390    -549.403     477.825
  H      232.071    -547.715     477.507

 6  7  8  9  10  11  12  13  14  15  16  26  31  32  33  34  35 0
 6-311+G(2d,p)
 ****
 36  37 0
 6-311+G(2d,p)
 ****
 1  2  3  4  5  17  18  19  20  21  22  23  24  25 0
 3-21G
 ****
 27  28  29  30  38  39  40  41  42  43  44  45 0
 3-21G
 ****


