%nproc=1
%NoSave
%Mem=1900MB
#P OB98/GEN NMR

erre ene a

0 1
  C     -300.314      67.562     662.845
  O     -299.626      68.373     663.808
  P     -298.969      67.639     665.071
  C     -300.854      67.729     666.865
  O     -300.136      66.948     665.924
  C     -301.607      66.832     667.851
  O     -302.737      66.187     667.234
  C     -300.761      65.708     668.423
  O     -299.955      66.158     669.502
  C     -301.837      64.754     668.926
  O     -302.337      65.214     670.199
  C     -302.917      64.886     667.848
  N     -304.399      60.170     666.520
  C     -304.606      60.898     667.648
  N     -304.167      62.144     667.925
  C     -303.450      62.639     666.908
  C     -303.152      62.014     665.709
  C     -303.665      60.717     665.526
  N     -303.452      59.980     664.383
  N     -302.388      62.831     664.905
  C     -302.233      63.937     665.604
  N     -302.851      63.867     666.825
  O     -298.510      68.858     666.002
  O     -297.813      66.756     664.725
  H     -301.562      65.363     670.770
  H     -297.685      68.627     666.470
  H     -305.208      60.418     668.413
  H     -301.695      64.818     665.266
  H     -303.929      64.865     668.270
  H     -301.456      63.737     669.080
  H     -300.164      65.227     667.635
  H     -301.981      67.468     668.671
  H     -301.558      68.386     666.345
  H     -303.875      59.065     664.315
  H     -302.927      60.394     663.631
  H     -300.155      68.392     667.392
  P     -298.452      66.612     669.161
  C     -297.456      64.288     669.750
  O     -297.675      65.270     668.759
  O     -297.862      66.996     670.597
  O     -298.353      67.739     668.194
  H     -297.182      67.690     670.504
  H     -297.202      63.344     669.261
  H     -298.346      64.133     670.363
  H     -296.619      64.591     670.389
  H     -300.698      68.184     662.064
  H     -301.123      67.050     663.323
  H     -299.635      66.847     662.430

 3  4  5  6  7  8  9  10  11  12  22  25  29  30  31  32 0
 6-311+G(2d,p)
 ****
 33  36  37 0
 6-311+G(2d,p)
 ****
 1  2  13  14  15  16  17  18  19  20  21  23  24  26 0
 3-21G
 ****
 27  28  34  35  38  39  40  41  42  43  44  45  46  47  48 0
 3-21G
 ****


