%nproc=1
%NoSave
%Mem=1900MB
#P OB98/GEN NMR

erre ene a

0 1
  C      -51.932      36.973      86.970
  O      -51.900      37.501      88.282
  H      -52.929      36.565      86.783
  H      -51.199      36.170      86.862
  H      -51.735      37.760      86.237
  P      -50.527      38.128      88.820
  C      -51.360      40.570      88.697
  O      -50.439      39.606      88.201
  C      -50.810      41.980      88.495
  O      -50.465      42.194      87.113
  C      -51.786      43.094      88.871
  O      -51.778      43.314      90.272
  C      -51.192      44.258      88.095
  O      -50.028      44.755      88.783
  C      -50.772      43.576      86.779
  N      -52.958      46.303      83.095
  C      -52.037      46.684      84.053
  N      -51.670      47.984      84.048
  N      -51.532      45.869      84.943
  C      -52.043      44.618      84.874
  C      -52.970      44.125      83.984
  C      -53.471      45.021      82.962
  O      -54.270      44.715      82.080
  N      -53.316      42.830      84.283
  C      -52.559      42.526      85.319
  N      -51.773      43.581      85.724
  O      -49.296      37.303      88.598
  O      -50.797      38.397      90.374
  H      -50.331      45.112      89.640
  H      -50.521      37.636      90.917
  H      -53.318      46.976      82.441
  H      -52.535      41.560      85.812
  H      -49.865      44.022      86.356
  H      -51.885      45.095      87.986
  H      -52.132      48.688      83.489
  H      -52.793      42.891      88.492
  H      -51.041      48.295      84.778
  H      -49.881      42.063      89.075
  H      -51.509      40.366      89.762
  H      -52.324      40.476      88.185
  P      -53.084      43.843      91.047
  C      -54.082      41.455      91.073
  O      -54.248      42.805      90.672
  O      -53.421      45.273      90.801
  O      -52.805      43.489      92.579
  H      -52.274      44.183      93.045
  H      -54.929      40.883      90.758
  H      -53.996      41.407      92.138
  H      -53.196      41.056      90.625

 6  7  8  9  10  11  12  13  14  15  26  29  33  34 0
 6-311+G(2d,p)
 ****
 36  38  39  40  41 0
 6-311+G(2d,p)
 ****
 1  2  3  4  5  16  17  18  19  20  21  22  23  24  25 0
 3-21G
 ****
 27  28  30  31  32  35  37  42  43  44  45  46  47 0
 3-21G
 ****
 48  49 0
 3-21G
 ****


