%nproc=1
%NoSave
%Mem=1900MB
#P OB98/GEN NMR

erre ene a

0 1
  C     -335.975      75.372     -51.993
  O     -334.572      75.188     -52.066
  H     -336.184      76.446     -51.993
  H     -336.379      74.936     -51.077
  H     -336.455      74.923     -52.865
  P     -333.991      73.715     -51.802
  C     -333.654      74.295     -49.310
  O     -334.272      73.418     -50.245
  C     -333.399      73.598     -47.978
  O     -334.640      73.150     -47.386
  C     -332.545      72.342     -48.086
  O     -331.208      72.567     -48.468
  C     -332.833      71.651     -46.762
  O     -332.043      72.167     -45.691
  C     -334.323      72.019     -46.543
  N     -335.216      70.892     -46.794
  C     -335.381      70.001     -45.743
  O     -334.806      70.108     -44.660
  N     -336.215      68.939     -45.990
  C     -336.846      68.671     -47.171
  O     -337.564      67.692     -47.330
  C     -336.600      69.634     -48.259
  C     -335.812      70.684     -48.025
  O     -332.564      73.499     -52.212
  O     -335.027      72.752     -52.549
  H     -332.408      71.798     -44.867
  H     -334.651      71.844     -52.668
  H     -336.361      68.287     -45.230
  H     -337.075      69.444     -49.210
  H     -335.619      71.413     -48.813
  H     -334.487      72.350     -45.507
  H     -332.652      70.572     -46.808
  H     -332.975      71.700     -48.867
  H     -332.948      74.325     -47.288
  H     -334.332      75.143     -49.147
  H     -332.712      74.669     -49.728
  P     -330.441      71.710     -49.571
  C     -329.334      70.045     -47.881
  O     -330.206      70.230     -48.993
  O     -329.308      72.375     -50.275
  O     -331.611      71.456     -50.660
  H     -331.186      71.442     -51.539
  H     -329.293      69.006     -47.629
  H     -329.701      70.601     -47.044
  H     -328.353      70.389     -48.136

 6  7  8  9  10  11  12  13  14  15  16  26  31  32  33  34  35 0
 6-311+G(2d,p)
 ****
 36  37 0
 6-311+G(2d,p)
 ****
 1  2  3  4  5  17  18  19  20  21  22  23  24  25 0
 3-21G
 ****
 27  28  29  30  38  39  40  41  42  43  44  45 0
 3-21G
 ****


