%nproc=1
%NoSave
%Mem=1900MB
#P OB98/GEN NMR

erre ene a

0 1
  C      292.327     931.041     583.650
  O      292.390     931.184     582.233
  P      293.212     930.083     581.414
  C      293.454     929.470     578.878
  O      292.734     930.165     579.893
  C      292.702     929.543     577.554
  O      291.426     928.872     577.647
  C      292.386     930.980     577.109
  O      293.519     931.599     576.532
  C      291.251     930.731     576.111
  O      291.748     930.389     574.825
  C      290.508     929.543     576.743
  N      289.284     929.937     577.419
  C      288.150     930.042     576.621
  O      288.179     929.839     575.406
  N      286.997     930.435     577.253
  C      286.868     930.766     578.568
  O      285.816     931.154     579.058
  C      288.107     930.660     579.361
  C      289.235     930.273     578.766
  O      292.599     928.683     581.920
  O      294.692     930.133     581.592
  H      292.325     931.108     574.540
  H      293.311     928.001     581.948
  H      286.157     930.472     576.691
  H      288.048     930.920     580.416
  H      290.158     930.200     579.347
  H      290.264     928.811     575.988
  H      290.633     931.632     575.987
  H      292.016     931.548     577.955
  H      293.303     929.021     576.799
  H      293.573     928.416     579.186
  H      294.454     929.918     578.788
  P      293.419     933.177     576.254
  C      295.292     934.973     575.891
  O      294.922     933.731     576.476
  O      292.601     933.648     577.574
  O      292.761     933.511     574.967
  H      292.819     933.109     578.352
  H      294.458     935.680     575.911
  H      295.619     934.802     574.855
  H      296.132     935.385     576.476
  H      291.750     931.841     584.064
  H      293.317     931.068     584.056
  H      291.867     930.106     583.894

 3  4  5  6  7  8  9  10  11  12  13  23  28  29  30  31  32 0
 6-311+G(2d,p)
 ****
 33  34 0
 6-311+G(2d,p)
 ****
 1  2  14  15  16  17  18  19  20  21  22  24  25  26 0
 3-21G
 ****
 27  35  36  37  38  39  40  41  42  43  44  45 0
 3-21G
 ****


