%nproc=1
%NoSave
%Mem=1900MB
#P OB98/GEN NMR

erre ene a

0 1
  C      184.590     698.226    1029.711
  O      185.555     697.700    1030.602
  H      183.842     698.768    1030.291
  H      184.101     697.423    1029.162
  H      185.072     698.922    1029.012
  P      186.705     696.774    1029.975
  C      185.441     694.524    1030.317
  O      186.561     695.335    1030.660
  C      185.741     693.071    1030.657
  O      186.859     692.605    1029.872
  C      186.141     692.833    1032.109
  O      185.027     692.816    1032.987
  C      186.830     691.487    1032.011
  O      185.878     690.401    1032.068
  C      187.502     691.553    1030.623
  N      188.949     691.762    1030.745
  C      189.759     690.968    1029.955
  O      189.306     690.130    1029.158
  N      191.107     691.132    1030.089
  C      191.715     691.968    1030.977
  O      192.935     692.035    1031.103
  C      190.819     692.777    1031.821
  C      189.489     692.650    1031.670
  O      188.049     697.371    1030.608
  O      186.747     696.756    1028.482
  H      188.534     697.873    1029.922
  H      185.649     690.300    1033.011
  H      191.701     690.568    1029.516
  H      191.275     693.447    1032.551
  H      188.809     693.215    1032.295
  H      187.347     690.614    1030.077
  H      187.537     691.340    1032.827
  H      186.877     693.593    1032.426
  H      184.856     692.456    1030.403
  H      185.241     694.603    1029.241
  H      184.566     694.883    1030.866
  P      184.927     693.991    1034.093
  C      185.812     692.570    1036.123
  O      184.736     693.254    1035.501
  O      183.477     694.589    1033.733
  O      186.041     694.964    1034.000
  H      182.898     693.911    1033.333
  H      185.480     692.149    1037.049
  H      186.611     693.257    1036.310
  H      186.157     691.788    1035.479

 6  7  8  9  10  11  12  13  14  15  16  27  31  32  33  34  35 0
 6-311+G(2d,p)
 ****
 36  37 0
 6-311+G(2d,p)
 ****
 1  2  3  4  5  17  18  19  20  21  22  23  24  25 0
 3-21G
 ****
 26  28  29  30  38  39  40  41  42  43  44  45 0
 3-21G
 ****


