%nproc=1
%NoSave
%Mem=1900MB
#P OB98/GEN NMR

erre ene a

0 1
  C       43.709     -50.697     106.256
  O       44.527     -51.152     105.198
  H       44.019     -49.685     106.528
  H       43.828     -51.344     107.127
  H       42.659     -50.670     105.953
  P       44.155     -52.530     104.471
  C       46.549     -53.422     104.821
  O       45.521     -53.129     103.884
  C       47.903     -53.010     104.253
  O       48.363     -53.993     103.302
  C       47.885     -51.684     103.502
  O       47.839     -50.593     104.402
  C       49.170     -51.797     102.697
  O       50.311     -51.474     103.506
  C       49.166     -53.298     102.321
  N       48.675     -53.551     100.968
  C       49.119     -54.719     100.356
  O       49.913     -55.494     100.885
  N       48.631     -54.957      99.099
  C       47.828     -54.119      98.381
  O       47.460     -54.356      97.233
  C       47.418     -52.885      99.064
  C       47.852     -52.661     100.305
  O       43.028     -52.466     103.494
  O       43.824     -53.519     105.687
  H       51.097     -51.586     102.937
  H       42.858     -53.594     105.795
  H       48.951     -55.792      98.635
  H       46.786     -52.194      98.523
  H       47.565     -51.753     100.824
  H       50.180     -53.710     102.398
  H       49.191     -51.123     101.841
  H       47.037     -51.653     102.808
  H       48.625     -52.979     105.080
  H       46.547     -54.499     105.020
  H       46.340     -52.888     105.753
  P       47.236     -49.184     103.950
  C       49.561     -48.123     104.103
  O       48.205     -48.037     104.520
  O       45.789     -48.982     104.254
  O       47.506     -49.135     102.374
  H       46.669     -49.277     101.889
  H       50.119     -47.318     104.535
  H       49.611     -48.059     103.036
  H       49.974     -49.056     104.424

 6  7  8  9  10  11  12  13  14  15  16  26  31  32  33  34  35 0
 6-311+G(2d,p)
 ****
 36  37 0
 6-311+G(2d,p)
 ****
 1  2  3  4  5  17  18  19  20  21  22  23  24  25 0
 3-21G
 ****
 27  28  29  30  38  39  40  41  42  43  44  45 0
 3-21G
 ****


