%nproc=1
%NoSave
%Mem=1900MB
#P OB98/GEN NMR

erre ene a

0 1
  C      -27.749     -58.893     104.494
  O      -26.394     -59.338     104.394
  P      -25.253     -58.306     104.856
  C      -25.008     -57.160     102.544
  O      -25.341     -57.005     103.917
  C      -24.740     -55.805     101.876
  O      -25.985     -55.085     101.646
  C      -23.838     -54.880     102.698
  O      -23.055     -54.105     101.782
  C      -24.828     -53.963     103.390
  O      -24.204     -52.763     103.843
  C      -25.864     -53.794     102.281
  N      -29.097     -49.848     102.511
  C      -27.890     -49.994     101.927
  N      -27.078     -51.077     101.929
  C      -27.655     -52.094     102.593
  C      -28.878     -52.092     103.248
  C      -29.616     -50.899     103.193
  N      -30.836     -50.741     103.811
  N      -29.105     -53.314     103.857
  C      -28.036     -54.033     103.576
  N      -27.147     -53.349     102.790
  O      -23.900     -59.020     104.384
  O      -25.243     -58.034     106.324
  H      -24.909     -52.150     104.148
  H      -23.415     -59.358     105.161
  H      -27.521     -49.126     101.387
  H      -27.852     -55.039     103.919
  H      -25.546     -53.067     101.520
  H      -25.265     -54.472     104.258
  H      -23.179     -55.395     103.404
  H      -24.282     -55.988     100.895
  H      -25.823     -57.664     102.017
  H      -31.290     -49.845     103.748
  H      -31.211     -51.499     104.360
  H      -24.140     -57.823     102.459
  P      -21.540     -54.583     101.553
  C      -20.683     -52.961     103.387
  O      -20.768     -54.295     102.926
  O      -20.948     -53.486     100.544
  O      -21.412     -55.970     101.010
  H      -20.210     -53.867     100.031
  H      -20.823     -52.952     104.472
  H      -21.438     -52.315     102.930
  H      -19.690     -52.566     103.155
  H      -28.405     -59.669     104.158
  H      -27.884     -58.023     103.886
  H      -27.972     -58.655     105.513

 3  4  5  6  7  8  9  10  11  12  22  25  29  30  31  32 0
 6-311+G(2d,p)
 ****
 33  36  37 0
 6-311+G(2d,p)
 ****
 1  2  13  14  15  16  17  18  19  20  21  23  24  26 0
 3-21G
 ****
 27  28  34  35  38  39  40  41  42  43  44  45  46  47  48 0
 3-21G
 ****


