%nproc=1
%NoSave
%Mem=1900MB
#P OB98/GEN NMR

erre ene a

0 1
  C      132.000    -342.097     182.634
  O      131.241    -341.084     181.959
  P      129.968    -340.503     182.752
  C      128.321    -340.467     180.744
  O      129.046    -339.706     181.701
  C      127.282    -339.616     180.009
  O      126.059    -339.578     180.785
  C      127.706    -338.162     179.761
  O      127.201    -337.753     178.481
  C      126.934    -337.388     180.819
  O      126.762    -336.019     180.467
  C      125.645    -338.203     180.875
  N      121.449    -336.132     182.795
  C      121.835    -336.274     181.473
  N      121.000    -335.775     180.539
  N      122.951    -336.858     181.108
  C      123.672    -337.340     182.149
  C      123.387    -337.268     183.494
  C      122.175    -336.582     183.887
  O      121.796    -336.376     185.038
  N      124.367    -337.869     184.246
  C      125.242    -338.300     183.359
  N      124.872    -337.995     182.076
  O      130.608    -339.348     183.663
  O      129.260    -341.522     183.583
  H      126.310    -335.584     181.216
  H      130.393    -339.512     184.604
  H      120.588    -335.656     183.019
  H      126.169    -338.809     183.589
  H      125.002    -337.986     180.011
  H      127.486    -337.433     181.768
  H      120.098    -335.376     180.748
  H      128.786    -337.990     179.807
  H      121.248    -335.912     179.564
  H      127.048    -340.113     179.057
  H      127.813    -341.293     181.254
  H      129.031    -340.902     180.031
  P      128.267    -337.684     177.281
  C      128.299    -335.172     176.600
  O      127.798    -336.468     176.344
  O      127.932    -338.985     176.416
  O      129.693    -337.650     177.731
  H      128.725    -339.289     175.936
  H      129.126    -335.179     177.313
  H      127.488    -334.555     177.001
  H      128.647    -334.738     175.660
  H      132.816    -342.404     182.014
  H      131.371    -342.938     182.838
  H      132.380    -341.704     183.554

 3  4  5  6  7  8  9  10  11  12  23  26  30  31  33  0
 6-311+G(2d,p)
 ****
 35  36  37  38 0
 6-311+G(2d,p)
 ****
 1  2  13  14  15  16  17  18  19  20  21  22  24  25  27  28  29 0
 3-21G
 ****
 32  34  39  40  41  42  43  44  45  46  47  48  49 0
 3-21G
 ****


