%nproc=1
%NoSave
%Mem=1900MB
#P OB98/GEN NMR

erre ene a

0 1
  C     -889.770     633.578     739.162
  O     -890.110     633.989     740.496
  P     -890.290     632.940     741.685
  C     -892.850     632.747     741.593
  O     -891.600     632.040     741.450
  C     -893.980     631.827     742.135
  O     -893.600     631.166     743.378
  C     -895.310     632.562     742.424
  O     -896.340     631.593     742.147
  C     -895.210     632.850     743.889
  O     -896.470     633.128     744.509
  C     -894.550     631.562     744.381
  N     -894.650     630.279     749.363
  C     -895.330     629.805     748.284
  N     -895.220     630.158     747.002
  C     -894.260     631.108     746.827
  C     -893.480     631.691     747.844
  C     -893.730     631.233     749.144
  N     -893.090     631.766     750.245
  N     -892.650     632.654     747.295
  C     -892.930     632.620     745.987
  N     -893.880     631.737     745.682
  O     -890.200     633.538     743.052
  O     -889.080     631.893     741.481
  H     -896.340     633.125     745.466
  H     -888.650     631.719     742.333
  H     -896.040     629.021     748.516
  H     -892.440     633.283     745.283
  H     -895.290     630.737     744.485
  H     -894.560     633.738     744.059
  H     -895.450     633.445     741.787
  H     -894.120     631.019     741.413
  H     -893.140     633.149     740.657
  H     -893.360     631.450     751.164
  H     -892.460     632.553     750.133
  H     -892.690     633.573     742.319
  P     -897.400     631.791     740.966
  C     -899.040     633.312     742.205
  O     -898.070     633.245     741.195
  O     -898.380     630.675     740.809
  O     -896.510     631.995     739.654
  H     -897.070     631.830     738.850
  H     -900.000     632.875     741.870
  H     -899.210     634.365     742.460
  H     -898.700     632.790     743.126
  H     -889.701     634.439     738.530
  H     -890.527     632.921     738.788
  H     -888.829     633.068     739.175

 3  4  5  6  7  8  9  10  11  12  22  25  29  30  31  32 0
 6-311+G(2d,p)
 ****
 33  36  37 0
 6-311+G(2d,p)
 ****
 1  2  13  14  15  16  17  18  19  20  21  23  24  26 0
 3-21G
 ****
 27  28  34  35  38  39  40  41  42  43  44  45  46  47  48 0
 3-21G
 ****


