%nproc=1
%NoSave
%Mem=1900MB
#P OB98/GEN NMR

erre ene a

0 1
  C       28.788     217.258     373.631
  O       27.966     217.785     372.611
  H       28.659     216.173     373.659
  H       28.488     217.670     374.597
  H       29.842     217.479     373.443
  P       28.173     219.309     372.157
  C       28.163     220.494     369.864
  O       27.676     219.402     370.632
  C       27.850     220.297     368.378
  O       28.578     219.131     367.897
  C       26.362     220.065     368.080
  O       26.098     220.607     366.776
  C       26.283     218.553     368.049
  O       25.112     218.107     367.405
  C       27.605     218.213     367.354
  N       27.998     216.820     367.549
  C       27.250     215.861     366.871
  O       26.283     216.144     366.161
  N       27.619     214.561     367.067
  C       28.606     214.128     367.906
  O       28.871     212.945     368.067
  C       29.333     215.182     368.631
  C       29.006     216.459     368.423
  O       29.529     219.881     372.408
  O       27.030     220.114     372.941
  H       25.269     217.244     366.968
  H       27.331     221.025     373.128
  H       27.094     213.856     366.572
  H       30.114     214.872     369.316
  H       29.523     217.256     368.944
  H       27.536     218.396     366.272
  H       26.269     218.148     369.064
  H       25.698     220.516     368.820
  H       28.234     221.163     367.823
  H       29.248     220.552     370.010
  H       27.706     221.422     370.223
  P       24.959     221.711     366.525
  C       25.054     224.121     365.615
  O       25.498     222.773     365.449
  O       24.416     222.328     367.775
  O       23.806     220.934     365.732
  H       22.939     221.349     365.918
  H       25.475     224.733     364.845
  H       25.368     224.485     366.571
  H       23.986     224.155     365.553

 6  7  8  9  10  11  12  13  14  15  16  26  31  32  33  34  35 0
 6-311+G(2d,p)
 ****
 36  37 0
 6-311+G(2d,p)
 ****
 1  2  3  4  5  17  18  19  20  21  22  23  24  25 0
 3-21G
 ****
 27  28  29  30  38  39  40  41  42  43  44  45 0
 3-21G
 ****


