%nproc=1
%NoSave
%Mem=1900MB
#P OB98/GEN NMR

erre ene a

0 1
  C      229.898     362.494    -682.005
  O      230.656     363.120    -680.957
  P      231.595     362.213    -680.027
  C      233.014     362.472    -677.877
  O      232.119     363.095    -678.786
  C      234.295     363.307    -677.744
  O      234.929     363.513    -679.037
  C      234.032     364.713    -677.212
  O      233.630     364.821    -675.864
  C      235.286     365.458    -677.632
  O      236.352     365.251    -676.704
  C      235.613     364.782    -678.988
  N      235.249     365.626    -680.142
  C      236.239     366.501    -680.584
  O      237.337     366.613    -680.047
  N      235.901     367.272    -681.671
  C      234.685     367.270    -682.298
  O      234.436     368.007    -683.252
  C      233.673     366.353    -681.761
  C      234.004     365.574    -680.722
  O      232.646     361.423    -680.728
  O      230.533     361.226    -679.318
  H      236.079     365.637    -675.851
  H      230.934     360.333    -679.286
  H      236.600     367.906    -682.008
  H      232.715     366.333    -682.238
  H      233.268     364.888    -680.304
  H      236.694     364.565    -679.060
  H      235.119     366.543    -677.689
  H      233.201     365.142    -677.797
  H      235.001     362.763    -677.117
  H      233.258     361.458    -678.227
  H      232.512     362.342    -676.916
  P      232.108     364.693    -675.389
  C      231.295     364.255    -672.959
  O      232.022     365.089    -673.838
  O      231.357     363.480    -675.821
  O      231.447     365.992    -676.096
  H      230.523     365.773    -676.329
  H      231.332     364.689    -671.950
  H      231.723     363.262    -672.920
  H      230.247     364.195    -673.275
  H      229.329     363.236    -682.526
  H      229.235     361.769    -681.581
  H      230.565     362.011    -682.688

 3  4  5  6  7  8  9  10  11  12  13  23  28  29  30  31  32 0
 6-311+G(2d,p)
 ****
 33  34 0
 6-311+G(2d,p)
 ****
 1  2  14  15  16  17  18  19  20  21  22  24  25  26  27 0
 3-21G
 ****
 35  36  37  38  39  40  41  42  43  44  45 0
 3-21G
 ****


