%nproc=1
%NoSave
%Mem=1900MB
#P OB98/GEN NMR

erre ene a

0 1
  C     -131.881    -590.113     138.334
  O     -131.816    -589.318     137.139
  P     -130.583    -588.349     136.791
  C     -129.733    -589.735     134.777
  O     -130.264    -588.489     135.224
  C     -129.562    -589.737     133.255
  O     -130.854    -589.709     132.602
  C     -128.829    -588.531     132.683
  O     -127.438    -588.568     132.939
  C     -129.199    -588.632     131.205
  O     -128.328    -589.536     130.507
  C     -130.625    -589.221     131.262
  N     -131.648    -588.265     130.869
  C     -132.156    -588.382     129.573
  O     -131.685    -589.210     128.796
  N     -133.177    -587.548     129.189
  C     -133.575    -586.605     129.990
  N     -134.600    -585.822     129.563
  C     -132.967    -586.358     131.312
  C     -132.023    -587.217     131.688
  O     -129.391    -588.547     137.667
  O     -131.164    -586.863     136.934
  H     -130.437    -586.247     137.147
  H     -127.438    -589.133     130.517
  H     -133.305    -585.539     131.929
  H     -131.536    -587.121     132.651
  H     -130.697    -590.105     130.615
  H     -129.135    -587.666     130.695
  H     -129.265    -587.614     133.100
  H     -129.048    -590.666     132.970
  H     -134.997    -586.023     128.654
  H     -130.434    -590.530     135.057
  H     -135.003    -585.078     130.116
  H     -128.777    -589.920     135.279
  P     -126.801    -587.304     133.695
  C     -125.253    -588.853     135.092
  O     -125.353    -587.736     134.231
  O     -127.682    -587.182     135.026
  O     -126.827    -586.036     132.908
  H     -127.834    -586.239     135.228
  H     -124.264    -589.298     134.975
  H     -126.015    -589.603     134.867
  H     -125.371    -588.514     136.131
  H     -132.793    -590.672     138.341
  H     -131.848    -589.473     139.191
  H     -131.050    -590.786     138.360

 3  4  5  6  7  8  9  10  11  12  13  24  27  28  29  30  32 0
 6-311+G(2d,p)
 ****
 34  35 0
 6-311+G(2d,p)
 ****
 1  2  14  15  16  17  18  19  20  21  22  23  25  26 0
 3-21G
 ****
 31  33  36  37  38  39  40  41  42  43  44  45  46 0
 3-21G
 ****


