%nproc=1
%NoSave
%Mem=1900MB
#P OB98/GEN NMR

erre ene a

0 1
  C     -162.551     -26.431    -136.931
  O     -162.979     -25.485    -135.974
  H     -163.334     -26.548    -137.685
  H     -162.372     -27.400    -136.457
  H     -161.638     -26.082    -137.421
  P     -162.016     -25.239    -134.716
  C     -164.036     -25.746    -133.163
  O     -162.673     -26.004    -133.470
  C     -164.571     -26.847    -132.253
  O     -164.611     -28.102    -132.975
  C     -163.710     -27.114    -131.028
  O     -163.914     -26.164    -129.996
  C     -164.186     -28.502    -130.638
  O     -165.371     -28.451    -129.832
  C     -164.468     -29.157    -132.003
  N     -163.423     -30.108    -132.374
  C     -163.325     -31.239    -131.568
  O     -164.059     -31.449    -130.605
  N     -162.321     -32.112    -131.887
  C     -161.397     -31.942    -132.875
  O     -160.487     -32.738    -133.071
  C     -161.539     -30.720    -133.682
  C     -162.528     -29.868    -133.396
  O     -162.245     -23.692    -134.378
  O     -160.576     -25.553    -134.956
  H     -161.468     -23.175    -134.659
  H     -165.607     -29.380    -129.641
  H     -162.235     -32.939    -131.317
  H     -160.820     -30.551    -134.474
  H     -162.647     -28.955    -133.970
  H     -165.425     -29.694    -131.980
  H     -163.427     -29.027    -130.063
  H     -162.652     -27.167    -131.313
  H     -165.596     -26.588    -131.957
  H     -164.625     -25.730    -134.085
  H     -164.114     -24.766    -132.680
  P     -162.995     -26.274    -128.685
  C     -164.922     -25.074    -127.354
  O     -163.996     -26.145    -127.440
  O     -162.232     -24.871    -128.742
  O     -162.114     -27.476    -128.687
  H     -162.755     -24.193    -129.206
  H     -165.494     -25.168    -126.455
  H     -165.578     -25.101    -128.199
  H     -164.392     -24.144    -127.344

 6  7  8  9  10  11  12  13  14  15  16  27  31  32  33  34  35 0
 6-311+G(2d,p)
 ****
 36  37 0
 6-311+G(2d,p)
 ****
 1  2  3  4  5  17  18  19  20  21  22  23  24  25 0
 3-21G
 ****
 26  28  29  30  38  39  40  41  42  43  44  45 0
 3-21G
 ****


