%nproc=1
%NoSave
%Mem=1900MB
#P OB98/GEN NMR

erre ene a

0 1
  C     1244.209     891.409    -401.943
  O     1245.267     890.570    -402.347
  H     1243.572     890.859    -401.237
  H     1243.593     891.702    -402.803
  H     1244.588     892.300    -401.445
  P     1246.295     891.114    -403.443
  C     1246.867     890.403    -405.878
  O     1245.893     890.413    -404.842
  C     1246.540     889.330    -406.914
  O     1246.768     888.020    -406.347
  C     1245.092     889.327    -407.382
  O     1244.864     890.383    -408.296
  C     1244.991     887.926    -407.984
  O     1245.595     887.882    -409.288
  C     1245.828     887.108    -406.961
  N     1244.996     886.449    -405.959
  C     1244.209     885.384    -406.412
  O     1244.188     885.059    -407.600
  N     1243.423     884.728    -405.487
  C     1243.461     885.059    -404.259
  N     1242.657     884.345    -403.381
  C     1244.316     886.115    -403.707
  C     1245.037     886.776    -404.615
  O     1247.758     891.010    -403.114
  O     1245.852     892.645    -403.669
  H     1245.046     888.428    -409.870
  H     1246.371     893.234    -403.101
  H     1244.322     886.358    -402.667
  H     1245.707     887.584    -404.307
  H     1246.412     886.335    -407.485
  H     1243.962     887.601    -408.092
  H     1244.412     889.385    -406.533
  H     1247.231     889.441    -407.746
  H     1242.086     883.613    -403.808
  H     1247.824     890.207    -405.403
  H     1242.715     884.402    -402.378
  H     1246.917     891.396    -406.367
  P     1243.501     891.227    -408.280
  C     1241.238     890.963    -409.491
  O     1242.426     890.314    -409.002
  O     1243.622     892.620    -408.793
  O     1243.035     891.153    -406.746
  H     1243.569     891.787    -406.193
  H     1240.600     890.239    -409.953
  H     1241.509     891.709    -410.208
  H     1240.722     891.424    -408.675

 6  7  8  9  10  11  12  13  14  15  16  26  30  31  32  33  35 0
 6-311+G(2d,p)
 ****
 37  38 0
 6-311+G(2d,p)
 ****
 1  2  3  4  5  17  18  19  20  21  22  23  24  25 0
 3-21G
 ****
 27  28  29  34  36  39  40  41  42  43  44  45  46 0
 3-21G
 ****


