%nproc=1
%NoSave
%Mem=1900MB
#P OB98/GEN NMR

erre ene a

0 1
  C     -249.841     512.117     625.974
  O     -250.397     510.814     625.933
  P     -250.856     510.149     627.322
  C     -248.576     508.984     627.931
  O     -249.929     508.862     627.521
  C     -248.165     507.776     628.771
  O     -248.895     507.778     630.023
  C     -248.464     506.427     628.125
  O     -247.524     506.099     627.126
  C     -248.438     505.510     629.348
  O     -247.083     505.189     629.706
  C     -249.071     506.403     630.432
  N     -250.476     506.102     630.684
  C     -250.734     505.046     631.556
  O     -249.847     504.395     632.101
  N     -252.063     504.756     631.763
  C     -253.115     505.358     631.154
  O     -254.287     505.032     631.356
  C     -252.790     506.443     630.220
  C     -251.501     506.765     630.027
  O     -252.290     509.576     626.909
  O     -250.878     511.121     628.453
  H     -252.334     509.367     625.954
  H     -247.122     504.788     630.596
  H     -252.274     504.010     632.413
  H     -253.606     506.941     629.713
  H     -251.239     507.544     629.328
  H     -248.521     506.298     631.378
  H     -248.970     504.567     629.174
  H     -249.474     506.434     627.701
  H     -247.100     507.868     629.003
  H     -248.470     509.900     628.532
  H     -247.947     509.071     627.039
  P     -248.098     505.896     625.632
  C     -248.177     503.280     625.556
  O     -247.544     504.473     625.136
  O     -247.233     506.958     624.818
  O     -249.576     506.084     625.537
  H     -246.298     506.974     625.084
  H     -247.910     502.478     624.861
  H     -249.271     503.391     625.560
  H     -247.833     503.011     626.553
  H     -249.584     512.427     624.982
  H     -248.962     512.111     626.584
  H     -250.557     512.797     626.386

 3  4  5  6  7  8  9  10  11  12  13  24  28  29  30  31  32 0
 6-311+G(2d,p)
 ****
 33  34 0
 6-311+G(2d,p)
 ****
 1  2  14  15  16  17  18  19  20  21  22  23  25  26  27 0
 3-21G
 ****
 35  36  37  38  39  40  41  42  43  44  45 0
 3-21G
 ****


