%nproc=1
%NoSave
%Mem=1900MB
#P OB98/GEN NMR

erre ene a

0 1
  C       -1.063      47.406     -28.772
  O       -0.914      48.313     -29.846
  H       -1.935      47.699     -28.182
  H       -0.179      47.431     -28.128
  H       -1.214      46.393     -29.152
  P        0.382      48.112     -30.773
  C        1.568      49.974     -29.383
  O        1.588      48.633     -29.849
  C        2.961      50.582     -29.505
  O        3.846      50.032     -28.505
  C        3.642      50.314     -30.842
  O        3.175      51.160     -31.880
  C        5.085      50.612     -30.478
  O        5.280      52.036     -30.401
  C        5.180      49.962     -29.078
  N        5.649      48.576     -29.119
  C        7.032      48.385     -29.219
  O        7.795      49.347     -29.280
  N        7.519      47.101     -29.283
  C        6.701      46.096     -29.238
  N        7.237      44.848     -29.319
  C        5.240      46.253     -29.116
  C        4.789      47.503     -29.063
  O        0.250      49.276     -31.863
  O        0.572      46.749     -31.348
  H        6.169      52.180     -30.028
  H        1.071      49.316     -32.411
  H        4.597      45.384     -29.094
  H        3.725      47.695     -28.975
  H        5.845      50.537     -28.424
  H        5.799      50.228     -31.208
  H        3.564      49.261     -31.131
  H        2.878      51.660     -29.309
  H        8.235      44.774     -29.465
  H        1.246      49.971     -28.337
  H        6.673      44.022     -29.474
  H        0.861      50.566     -29.973
  P        3.152      50.565     -33.371
  C        5.358      51.753     -34.051
  O        4.672      50.521     -33.883
  O        2.512      51.757     -34.224
  O        2.387      49.288     -33.530
  H        1.910      51.415     -34.912
  H        6.353      51.563     -34.394
  H        5.396      52.270     -33.115
  H        4.841      52.354     -34.770

 6  7  8  9  10  11  12  13  14  15  16  26  30  31  32  33  35 0
 6-311+G(2d,p)
 ****
 37  38 0
 6-311+G(2d,p)
 ****
 1  2  3  4  5  17  18  19  20  21  22  23  24  25 0
 3-21G
 ****
 27  28  29  34  36  39  40  41  42  43  44  45  46 0
 3-21G
 ****


