%nproc=1
%NoSave
%Mem=1900MB
#P OB98/GEN NMR

erre ene a

0 1
  C      -48.694     205.976     618.638
  O      -48.613     206.694     617.426
  H      -48.783     206.684     619.464
  H      -47.786     205.385     618.782
  H      -49.571     205.317     618.641
  P      -48.637     205.848     616.059
  C      -50.992     206.560     615.224
  O      -49.584     206.646     615.039
  C      -51.701     207.730     614.535
  O      -51.244     208.969     615.132
  C      -51.423     207.804     613.030
  O      -52.633     208.219     612.362
  C      -50.385     208.907     612.901
  O      -50.391     209.531     611.620
  C      -50.762     209.822     614.070
  N      -49.624     210.636     614.499
  C      -49.850     212.012     614.631
  O      -50.961     212.488     614.378
  N      -48.799     212.825     614.984
  C      -47.609     212.320     615.116
  N      -46.605     213.183     615.437
  C      -47.316     210.880     614.919
  C      -48.362     210.106     614.632
  O      -49.506     204.558     616.437
  O      -47.296     205.494     615.507
  H      -50.244     208.840     610.939
  H      -49.210     203.774     615.934
  H      -46.303     210.511     615.017
  H      -48.240     209.043     614.461
  H      -51.585     210.494     613.784
  H      -49.382     208.479     613.063
  H      -51.086     206.856     612.603
  H      -52.777     207.650     614.737
  H      -46.846     214.165     615.545
  H      -51.209     206.595     616.301
  H      -45.636     212.907     615.519
  H      -51.355     205.603     614.827
  P      -53.028     207.422     611.027
  C      -55.472     206.924     611.771
  O      -54.616     207.552     610.822
  O      -52.824     205.884     611.439
  O      -52.197     207.789     609.839
  H      -52.036     205.523     610.998
  H      -56.493     207.099     611.501
  H      -55.286     207.330     612.743
  H      -55.281     205.871     611.782

 6  7  8  9  10  11  12  13  14  15  16  26  30  31  32  33  35 0
 6-311+G(2d,p)
 ****
 37  38 0
 6-311+G(2d,p)
 ****
 1  2  3  4  5  17  18  19  20  21  22  23  24  25 0
 3-21G
 ****
 27  28  29  34  36  39  40  41  42  43  44  45  46 0
 3-21G
 ****


