%nproc=1
%NoSave
%Mem=1900MB
#P OB98/GEN NMR

erre ene a

0 1
  C     -320.736    -235.478     128.109
  O     -320.461    -235.952     126.802
  P     -320.648    -234.982     125.542
  C     -322.189    -236.815     124.525
  O     -321.143    -235.893     124.320
  C     -322.801    -237.269     123.191
  O     -323.314    -236.093     122.516
  C     -321.815    -237.912     122.221
  O     -322.551    -238.645     121.242
  C     -321.179    -236.699     121.575
  O     -320.559    -237.011     120.332
  C     -322.365    -235.704     121.499
  N     -321.920    -234.314     121.718
  C     -320.802    -233.889     121.007
  O     -320.237    -234.589     120.166
  N     -320.301    -232.665     121.349
  C     -320.783    -231.871     122.351
  O     -320.154    -230.942     122.848
  C     -322.092    -232.257     122.898
  C     -322.582    -233.459     122.580
  O     -319.141    -234.611     125.157
  O     -321.472    -233.768     125.800
  H     -321.281    -237.276     119.712
  H     -318.893    -233.753     125.552
  H     -319.411    -232.419     120.936
  H     -322.580    -231.581     123.586
  H     -323.522    -233.795     123.012
  H     -322.858    -235.747     120.519
  H     -320.401    -236.305     122.244
  H     -321.072    -238.557     122.698
  H     -323.643    -237.941     123.387
  H     -322.953    -236.356     125.163
  H     -321.821    -237.695     125.064
  P     -321.980    -240.076     120.782
  C     -321.841    -239.723     118.244
  O     -322.545    -240.333     119.309
  O     -322.169    -241.193     121.752
  O     -320.426    -239.771     120.521
  H     -319.924    -240.605     120.524
  H     -321.954    -240.337     117.348
  H     -320.775    -239.622     118.472
  H     -322.266    -238.733     118.053
  H     -320.556    -236.260     128.817
  H     -321.759    -235.171     128.169
  H     -320.100    -234.645     128.328

 3  4  5  6  7  8  9  10  11  12  13  23  28  29  30  31  32 0
 6-311+G(2d,p)
 ****
 33  34 0
 6-311+G(2d,p)
 ****
 1  2  14  15  16  17  18  19  20  21  22  24  25  26  27 0
 3-21G
 ****
 35  36  37  38  39  40  41  42  43  44  45 0
 3-21G
 ****


