%nproc=1
%NoSave
%Mem=1900MB
#P OB98/GEN NMR

erre ene a

0 1
  C     -126.989      87.957    -185.866
  O     -126.058      87.978    -186.932
  H     -127.891      87.440    -186.201
  H     -127.252      88.977    -185.577
  H     -126.569      87.420    -185.012
  P     -124.645      88.677    -186.634
  C     -125.252      89.783    -188.894
  O     -124.216      89.315    -188.041
  C     -124.735      90.895    -189.802
  O     -124.174      91.966    -189.024
  C     -123.635      90.461    -190.762
  O     -124.181      89.808    -191.897
  C     -123.025      91.806    -191.125
  O     -123.840      92.458    -192.119
  C     -123.105      92.578    -189.795
  N     -120.271      95.204    -186.415
  C     -121.356      95.553    -187.139
  N     -122.031      94.818    -188.050
  C     -121.481      93.602    -188.182
  C     -120.374      93.105    -187.511
  C     -119.763      93.962    -186.582
  N     -118.661      93.598    -185.836
  N     -120.098      91.814    -187.910
  C     -121.054      91.517    -188.766
  N     -121.895      92.578    -188.994
  O     -123.631      87.822    -185.956
  O     -125.112      89.965    -185.804
  H     -123.314      93.186    -192.499
  H     -125.936      90.329    -186.173
  H     -121.735      96.557    -186.965
  H     -121.193      90.551    -189.235
  H     -123.374      93.629    -189.951
  H     -122.024      91.709    -191.548
  H     -122.880      89.851    -190.257
  H     -125.592      91.308    -190.351
  H     -126.097      90.149    -188.302
  H     -118.186      94.324    -185.325
  H     -118.211      92.720    -186.052
  H     -125.593      88.934    -189.494
  P     -124.322      88.213    -191.935
  C     -122.435      87.748    -193.618
  O     -123.841      87.746    -193.394
  O     -125.654      87.687    -191.523
  O     -123.154      87.684    -190.982
  H     -123.458      86.911    -190.468
  H     -122.232      87.421    -194.617
  H     -121.962      87.086    -192.923
  H     -122.054      88.739    -193.482

 6  7  8  9  10  11  12  13  14  15  25  28  32  33  34  35 0
 6-311+G(2d,p)
 ****
 36  39  40 0
 6-311+G(2d,p)
 ****
 1  2  3  4  5  16  17  18  19  20  21  22  23  24 0
 3-21G
 ****
 26  27  29  30  31  37  38  41  42  43  44  45  46  47 0
 3-21G
 ****
 48 0
 3-21G
 ****


