%nproc=1
%NoSave
%Mem=1900MB
#P OB98/GEN NMR

erre ene a

0 1
  C      426.014     394.184       2.701
  O      426.140     393.032       3.515
  H      424.970     394.511       2.714
  H      426.295     393.943       1.671
  H      426.642     394.993       3.081
  P      427.632     392.535       3.817
  C      427.551     390.743       1.902
  O      427.747     391.022       3.284
  C      427.996     389.318       1.586
  O      429.382     389.126       1.932
  C      427.274     388.246       2.385
  O      425.943     388.054       1.960
  C      428.174     387.045       2.124
  O      427.845     386.394       0.891
  C      429.577     387.697       2.048
  N      430.402     387.336       3.186
  C      431.394     386.381       2.930
  O      431.530     385.923       1.795
  N      432.171     385.945       3.970
  C      431.962     386.401       5.167
  N      432.749     385.905       6.160
  C      430.926     387.407       5.481
  C      430.188     387.827       4.453
  O      427.625     392.362       5.407
  O      428.706     393.432       3.304
  H      428.614     385.827       0.666
  H      426.868     391.855       5.742
  H      430.800     387.765       6.492
  H      429.405     388.564       4.591
  H      430.096     387.378       1.134
  H      428.082     386.292       2.912
  H      427.321     388.479       3.459
  H      427.883     389.156       0.507
  H      433.408     385.178       5.912
  H      428.101     391.458       1.281
  H      432.623     386.128       7.139
  H      426.485     390.867       1.685
  P      424.722     388.103       2.995
  C      423.923     385.708       2.476
  O      423.601     387.095       2.438
  O      424.215     389.466       3.325
  O      425.289     387.300       4.264
  H      425.547     386.379       4.080
  H      423.105     385.141       2.082
  H      424.107     385.412       3.488
  H      424.798     385.529       1.887

 6  7  8  9  10  11  12  13  14  15  16  26  30  31  32  33  35 0
 6-311+G(2d,p)
 ****
 37  38 0
 6-311+G(2d,p)
 ****
 1  2  3  4  5  17  18  19  20  21  22  23  24  25 0
 3-21G
 ****
 27  28  29  34  36  39  40  41  42  43  44  45  46 0
 3-21G
 ****


