%nproc=1
%NoSave
%Mem=1900MB
#P OB98/GEN NMR

erre ene a

0 1
  C      598.984     141.476      32.720
  O      599.840     141.685      33.825
  H      598.188     140.787      33.014
  H      599.553     141.025      31.902
  H      598.534     142.416      32.389
  P      600.832     142.942      33.758
  C      600.064     143.806      36.085
  O      600.196     144.081      34.697
  C      600.134     145.100      36.896
  O      601.522     145.545      36.940
  C      599.291     146.254      36.314
  O      598.731     147.006      37.399
  C      600.328     147.110      35.620
  O      599.904     148.462      35.470
  C      601.520     146.937      36.561
  N      604.634     150.828      35.954
  C      603.557     150.658      36.807
  N      603.219     151.714      37.576
  N      602.869     149.555      36.889
  C      603.327     148.568      36.081
  C      604.375     148.608      35.190
  C      605.121     149.845      35.089
  O      606.067     150.057      34.337
  N      604.482     147.422      34.505
  C      603.486     146.678      34.967
  N      602.758     147.332      35.923
  O      600.592     143.500      32.276
  O      602.268     142.638      34.011
  H      600.629     148.962      35.043
  H      601.263     143.129      31.671
  H      605.118     151.707      35.912
  H      603.243     145.682      34.634
  H      601.422     147.541      37.474
  H      600.551     146.701      34.625
  H      603.718     152.594      37.589
  H      598.490     145.921      35.645
  H      602.458     151.595      38.236
  H      599.834     144.884      37.928
  H      600.880     143.144      36.396
  H      599.111     143.294      36.260
  P      597.140     147.044      37.549
  C      596.946     146.025      39.934
  O      596.689     145.867      38.545
  O      596.629     146.526      36.121
  O      596.592     148.394      37.867
  H      595.797     146.979      35.884
  H      596.591     145.165      40.463
  H      596.442     146.898      40.293
  H      597.999     146.131      40.092

 6  7  8  9  10  11  12  13  14  15  26  29  33  34 0
 6-311+G(2d,p)
 ****
 36  38  39  40  41 0
 6-311+G(2d,p)
 ****
 1  2  3  4  5  16  17  18  19  20  21  22  23  24  25 0
 3-21G
 ****
 27  28  30  31  32  35  37  42  43  44  45  46  47 0
 3-21G
 ****
 48  49 0
 3-21G
 ****


