%nproc=1
%NoSave
%Mem=1900MB
#P OB98/GEN NMR

erre ene a

0 1
  C     -383.520      48.687     841.410
  O     -382.436      48.393     840.505
  P     -380.951      48.945     840.759
  C     -379.608      46.908     839.898
  O     -379.964      48.267     839.671
  C     -378.707      46.363     838.777
  O     -379.375      46.487     837.499
  C     -377.382      47.071     838.627
  O     -376.464      46.624     839.620
  C     -376.988      46.713     837.195
  O     -376.425      45.397     837.136
  C     -378.355      46.740     836.492
  N     -378.583      49.042     831.924
  C     -378.315      47.770     832.288
  N     -378.275      47.233     833.529
  C     -378.567      48.162     834.457
  C     -378.859      49.498     834.237
  C     -378.858      49.959     832.903
  N     -379.108      51.249     832.538
  N     -379.070      50.156     835.440
  C     -378.954      49.214     836.362
  N     -378.647      47.996     835.809
  O     -380.479      48.818     842.175
  O     -380.994      50.476     840.309
  H     -375.770      45.314     837.843
  H     -380.326      50.985     840.816
  H     -378.100      47.086     831.472
  H     -379.063      49.368     837.426
  H     -378.452      45.941     835.747
  H     -376.258      47.400     836.767
  H     -377.518      48.160     838.704
  H     -378.565      45.288     838.964
  H     -380.525      46.308     839.957
  H     -379.063      51.499     831.562
  H     -379.263      51.933     833.276
  H     -379.089      46.831     840.850
  P     -375.998      47.606     840.804
  C     -375.835      46.416     843.069
  O     -375.177      46.725     841.856
  O     -377.092      48.448     841.400
  O     -374.864      48.526     840.134
  H     -374.876      49.401     840.548
  H     -375.760      47.271     843.744
  H     -375.317      45.550     843.537
  H     -376.873      46.150     842.905
  H     -384.417      48.224     841.054
  H     -383.662      49.746     841.464
  H     -383.285      48.309     842.383

 3  4  5  6  7  8  9  10  11  12  22  25  29  30  31  32 0
 6-311+G(2d,p)
 ****
 33  36  37 0
 6-311+G(2d,p)
 ****
 1  2  13  14  15  16  17  18  19  20  21  23  24  26 0
 3-21G
 ****
 27  28  34  35  38  39  40  41  42  43  44  45  46  47  48 0
 3-21G
 ****


