%nproc=1
%NoSave
%Mem=1900MB
#P OB98/GEN NMR

erre ene a

0 1
  C       40.114      32.703      36.295
  O       39.971      32.977      34.916
  H       40.388      33.627      36.811
  H       40.903      31.964      36.457
  H       39.170      32.336      36.704
  P       39.672      31.728      33.956
  C       41.548      32.488      32.327
  O       40.181      32.133      32.491
  C       41.927      32.391      30.851
  O       41.758      31.028      30.392
  C       41.059      33.238      29.931
  O       41.429      34.607      29.935
  C       41.324      32.571      28.592
  O       42.520      33.072      27.977
  C       41.474      31.088      28.979
  N       40.288      30.314      28.622
  C       40.449      29.412      27.574
  O       41.511      29.255      26.973
  N       39.331      28.713      27.211
  C       38.084      28.865      27.745
  O       37.111      28.247      27.333
  C       37.971      29.845      28.836
  C       39.060      30.518      29.218
  O       38.077      31.743      33.823
  O       40.178      30.415      34.455
  H       37.695      31.014      34.346
  H       42.792      32.394      27.327
  H       39.427      28.053      26.455
  H       36.994      29.992      29.283
  H       38.999      31.255      30.013
  H       42.337      30.645      28.465
  H       40.506      32.751      27.899
  H       40.000      33.113      30.188
  H       42.985      32.663      30.744
  H       42.179      31.800      32.900
  H       41.702      33.503      32.705
  P       40.255      35.697      30.023
  C       41.980      37.476      29.138
  O       40.987      37.122      30.088
  O       39.727      35.442      31.511
  O       39.229      35.543      28.952
  H       40.425      35.080      32.085
  H       42.343      38.459      29.352
  H       41.556      37.458      28.156
  H       42.789      36.778      29.190

 6  7  8  9  10  11  12  13  14  15  16  27  31  32  33  34  35 0
 6-311+G(2d,p)
 ****
 36  37 0
 6-311+G(2d,p)
 ****
 1  2  3  4  5  17  18  19  20  21  22  23  24  25 0
 3-21G
 ****
 26  28  29  30  38  39  40  41  42  43  44  45 0
 3-21G
 ****


