%nproc=1
%NoSave
%Mem=1900MB
#P OB98/GEN NMR

erre ene a

0 1
  C      233.044      52.834     -13.733
  O      233.311      54.198     -13.488
  H      233.915      52.390     -14.225
  H      232.178      52.726     -14.392
  H      232.866      52.304     -12.793
  P      232.163      55.103     -12.831
  C      232.442      54.796     -10.284
  O      232.726      55.610     -11.416
  C      231.966      55.665      -9.114
  O      231.534      54.777      -8.052
  C      233.078      56.569      -8.564
  O      232.700      57.943      -8.494
  C      233.477      55.882      -7.263
  O      234.035      56.741      -6.288
  C      232.186      55.178      -6.833
  N      232.402      54.026      -5.961
  C      231.400      53.721      -5.043
  O      230.337      54.329      -4.927
  N      231.650      52.644      -4.232
  C      232.773      51.873      -4.241
  O      232.937      50.916      -3.493
  C      233.804      52.258      -5.216
  C      233.577      53.301      -6.017
  O      230.806      54.485     -12.778
  O      232.167      56.436     -13.717
  H      233.430      57.501      -6.180
  H      231.416      56.418     -14.341
  H      230.924      52.408      -3.571
  H      234.713      51.672      -5.243
  H      234.317      53.612      -6.749
  H      231.528      55.873      -6.307
  H      234.238      55.125      -7.495
  H      233.944      56.581      -9.238
  H      231.093      56.246      -9.436
  H      233.358      54.263     -10.012
  H      231.665      54.065     -10.540
  P      233.527      59.145      -9.145
  C      233.160      59.120     -11.741
  O      232.765      59.615     -10.470
  O      234.999      58.935      -9.250
  O      233.282      60.363      -8.115
  H      234.096      60.907      -8.126
  H      232.537      59.546     -12.499
  H      233.061      58.055     -11.755
  H      234.180      59.386     -11.926

 6  7  8  9  10  11  12  13  14  15  16  26  31  32  33  34  35 0
 6-311+G(2d,p)
 ****
 36  37 0
 6-311+G(2d,p)
 ****
 1  2  3  4  5  17  18  19  20  21  22  23  24  25 0
 3-21G
 ****
 27  28  29  30  38  39  40  41  42  43  44  45 0
 3-21G
 ****


