%nproc=1
%NoSave
%Mem=1900MB
#P OB98/GEN NMR

erre ene a

0 1
  C     -140.640    -277.980     566.759
  O     -139.316    -277.754     566.317
  H     -141.358    -277.638     566.002
  H     -140.786    -279.053     566.917
  H     -140.816    -277.453     567.702
  P     -138.940    -276.247     565.925
  C     -139.895    -274.508     564.253
  O     -139.846    -275.870     564.652
  C     -140.074    -274.409     562.749
  O     -141.311    -275.051     562.344
  C     -140.161    -272.989     562.201
  O     -138.882    -272.380     562.093
  C     -140.777    -273.245     560.839
  O     -139.761    -273.669     559.916
  C     -141.745    -274.408     561.115
  N     -146.392    -274.254     558.936
  C     -145.207    -274.745     558.505
  N     -144.014    -274.737     559.133
  C     -144.116    -274.170     560.341
  C     -145.250    -273.616     560.922
  C     -146.432    -273.666     560.156
  N     -147.628    -273.143     560.603
  N     -144.977    -273.126     562.174
  C     -143.695    -273.374     562.365
  N     -143.127    -273.994     561.273
  O     -137.466    -276.378     565.305
  O     -138.977    -275.269     567.050
  H     -140.190    -273.785     559.048
  H     -136.953    -275.588     565.546
  H     -145.228    -275.204     557.527
  H     -143.140    -273.126     563.257
  H     -141.703    -275.165     560.329
  H     -141.261    -272.367     560.404
  H     -140.852    -272.376     562.802
  H     -139.248    -274.956     562.263
  H     -138.956    -274.014     564.535
  H     -148.472    -273.385     560.108
  H     -147.653    -272.717     561.524
  H     -140.727    -274.014     564.767
  P     -138.830    -270.773     562.006
  C     -139.950    -269.002     560.478
  O     -139.824    -270.383     560.802
  O     -137.380    -270.493     561.393
  O     -139.042    -270.062     563.304
  H     -137.078    -269.603     561.655
  H     -140.637    -268.887     559.666
  H     -138.994    -268.614     560.194
  H     -140.313    -268.467     561.331

 6  7  8  9  10  11  12  13  14  15  25  28  32  33  34  35 0
 6-311+G(2d,p)
 ****
 36  39  40 0
 6-311+G(2d,p)
 ****
 1  2  3  4  5  16  17  18  19  20  21  22  23  24 0
 3-21G
 ****
 26  27  29  30  31  37  38  41  42  43  44  45  46  47  48 0
 3-21G
 ****


