%nproc=1
%NoSave
%Mem=1900MB
#P OB98/GEN NMR

erre ene a

0 1
  C     -278.072    -729.611     -55.869
  O     -277.884    -730.584     -54.853
  P     -276.898    -731.832     -55.156
  C     -275.492    -731.005     -53.115
  O     -275.498    -731.435     -54.471
  C     -274.081    -730.519     -52.706
  O     -273.214    -731.676     -52.527
  C     -273.419    -729.571     -53.722
  O     -272.678    -728.590     -52.950
  C     -272.479    -730.498     -54.469
  O     -271.401    -729.765     -55.075
  C     -272.027    -731.424     -53.327
  N     -271.452    -732.684     -53.812
  C     -270.067    -732.764     -53.809
  O     -269.322    -731.827     -53.499
  N     -269.532    -733.964     -54.230
  C     -270.243    -735.033     -54.720
  O     -269.743    -736.082     -55.086
  C     -271.714    -734.832     -54.813
  C     -272.216    -733.674     -54.364
  O     -276.634    -731.605     -56.717
  O     -277.477    -733.145     -54.765
  H     -276.582    -730.668     -56.994
  H     -270.860    -729.346     -54.371
  H     -268.541    -734.063     -54.192
  H     -272.297    -735.615     -55.259
  H     -273.298    -733.492     -54.446
  H     -271.288    -730.929     -52.687
  H     -273.015    -731.051     -55.252
  H     -274.140    -729.077     -54.373
  H     -274.180    -730.006     -51.732
  H     -275.784    -731.827     -52.442
  H     -276.247    -730.199     -53.001
  P     -272.786    -727.062     -53.388
  C     -273.534    -726.337     -50.983
  O     -273.793    -726.317     -52.366
  O     -273.660    -727.188     -54.722
  O     -271.464    -726.385     -53.629
  H     -274.439    -727.759     -54.616
  H     -274.189    -725.583     -50.507
  H     -272.500    -726.058     -50.773
  H     -273.744    -727.309     -50.564
  H     -278.745    -728.856     -55.520
  H     -278.481    -730.079     -56.740
  H     -277.131    -729.164     -56.113

 3  4  5  6  7  8  9  10  11  12  13  24  28  29  30  31  32 0
 6-311+G(2d,p)
 ****
 33  34 0
 6-311+G(2d,p)
 ****
 1  2  14  15  16  17  18  19  20  21  22  23  25  26  27 0
 3-21G
 ****
 35  36  37  38  39  40  41  42  43  44  45 0
 3-21G
 ****


