%nproc=1
%NoSave
%Mem=1900MB
#P OB98/GEN NMR

erre ene a

0 1
  C      457.024    -182.420     -30.704
  O      457.278    -181.557     -31.796
  H      457.254    -183.445     -31.009
  H      455.969    -182.368     -30.413
  H      457.661    -182.151     -29.857
  P      456.963    -180.000     -31.568
  C      454.781    -178.740     -31.033
  O      455.359    -179.908     -31.602
  C      453.308    -178.986     -30.684
  O      452.533    -178.933     -31.911
  C      453.057    -180.345     -30.030
  O      452.049    -180.205     -29.023
  C      452.518    -181.195     -31.170
  O      451.700    -182.267     -30.706
  C      451.776    -180.153     -32.010
  N      448.872    -182.690     -35.351
  C      448.661    -182.327     -34.070
  N      449.491    -181.632     -33.251
  C      450.609    -181.274     -33.904
  C      450.962    -181.578     -35.210
  C      450.032    -182.328     -35.951
  N      450.246    -182.727     -37.252
  N      452.214    -181.072     -35.501
  C      452.603    -180.457     -34.396
  N      451.675    -180.569     -33.398
  O      457.679    -179.054     -32.477
  O      457.286    -179.828     -30.010
  H      452.284    -182.986     -30.382
  H      456.922    -180.567     -29.487
  H      447.711    -182.634     -33.636
  H      453.551    -179.936     -34.266
  H      450.757    -179.968     -31.647
  H      453.354    -181.626     -31.736
  H      453.958    -180.774     -29.595
  H      452.958    -178.164     -30.050
  H      454.857    -177.900     -31.732
  H      449.519    -183.253     -37.713
  H      451.098    -182.452     -37.718
  H      455.345    -178.490     -30.126
  P      452.518    -179.891     -27.520
  C      453.609    -181.159     -25.555
  O      453.277    -181.180     -26.939
  O      451.478    -179.303     -26.625
  O      453.727    -178.857     -27.740
  H      453.703    -178.182     -27.032
  H      454.108    -182.069     -25.294
  H      452.715    -181.064     -24.975
  H      454.254    -180.329     -25.355

 6  7  8  9  10  11  12  13  14  15  25  28  32  33  34  35 0
 6-311+G(2d,p)
 ****
 36  39  40 0
 6-311+G(2d,p)
 ****
 1  2  3  4  5  16  17  18  19  20  21  22  23  24 0
 3-21G
 ****
 26  27  29  30  31  37  38  41  42  43  44  45  46  47 0
 3-21G
 ****
 48 0
 3-21G
 ****


