%nproc=1
%NoSave
%Mem=1900MB
#P OB98/GEN NMR

erre ene a

0 1
  C      250.304     309.562    -576.800
  O      250.936     310.757    -576.395
  H      251.024     308.744    -576.743
  H      249.963     309.656    -577.836
  H      249.456     309.335    -576.145
  P      250.002     312.057    -576.238
  C      250.448     314.362    -575.053
  O      250.977     313.232    -575.727
  C      251.463     314.897    -574.039
  O      251.713     313.870    -573.037
  C      252.810     315.283    -574.657
  O      253.325     316.421    -573.952
  C      253.693     314.078    -574.355
  O      255.076     314.406    -574.361
  C      253.128     313.633    -572.991
  N      253.426     312.223    -572.692
  C      253.643     311.904    -571.347
  O      253.578     312.778    -570.482
  N      253.958     310.606    -571.020
  C      254.119     309.727    -571.962
  N      254.463     308.463    -571.574
  C      253.950     310.038    -573.392
  C      253.604     311.289    -573.686
  O      249.143     311.689    -574.937
  O      249.186     312.380    -577.446
  H      255.583     313.642    -574.010
  H      249.679     311.307    -574.216
  H      254.104     309.270    -574.147
  H      253.446     311.597    -574.714
  H      253.542     314.244    -572.181
  H      253.522     313.291    -575.110
  H      252.740     315.503    -575.719
  H      251.011     315.750    -573.507
  H      254.584     308.304    -570.581
  H      249.523     314.089    -574.532
  H      254.665     307.723    -572.215
  H      250.215     315.133    -575.798
  P      253.329     317.849    -574.680
  C      251.755     319.889    -574.435
  O      252.541     318.912    -573.768
  O      252.955     317.853    -576.119
  O      254.865     318.322    -574.500
  H      255.147     318.747    -575.341
  H      251.290     320.526    -573.712
  H      251.002     319.403    -575.019
  H      252.381     320.474    -575.076

 6  7  8  9  10  11  12  13  14  15  16  26  30  31  32  33  35 0
 6-311+G(2d,p)
 ****
 37  38 0
 6-311+G(2d,p)
 ****
 1  2  3  4  5  17  18  19  20  21  22  23  24  25 0
 3-21G
 ****
 27  28  29  34  36  39  40  41  42  43  44  45  46 0
 3-21G
 ****


