%nproc=1
%NoSave
%Mem=1900MB
#P OB98/GEN NMR

erre ene a

0 1
  C     -378.694    -514.267    -596.672
  O     -379.297    -514.953    -597.760
  P     -378.488    -515.031    -599.138
  C     -380.074    -517.047    -599.540
  O     -379.336    -515.984    -600.114
  C     -380.682    -517.922    -600.636
  O     -379.684    -518.307    -601.594
  C     -381.259    -519.239    -600.127
  O     -382.566    -519.073    -599.581
  C     -381.320    -520.047    -601.410
  O     -382.474    -519.673    -602.183
  C     -380.037    -519.609    -602.126
  N     -377.858    -523.855    -603.827
  C     -378.856    -523.080    -604.380
  N     -379.402    -523.552    -605.534
  N     -379.301    -521.964    -603.874
  C     -378.677    -521.619    -602.718
  C     -377.673    -522.303    -602.052
  C     -377.205    -523.544    -602.632
  O     -376.366    -524.299    -602.146
  N     -377.285    -521.652    -600.915
  C     -378.051    -520.573    -600.883
  N     -378.941    -520.534    -601.927
  O     -377.214    -515.919    -598.769
  O     -378.099    -513.701    -599.713
  H     -382.547    -520.319    -602.912
  H     -376.520    -515.813    -599.454
  H     -377.561    -524.704    -604.256
  H     -378.010    -519.809    -600.112
  H     -380.190    -519.489    -603.213
  H     -381.391    -521.128    -601.240
  H     -379.151    -524.440    -605.947
  H     -380.585    -519.732    -599.424
  H     -380.175    -523.034    -605.943
  H     -381.441    -517.332    -601.161
  H     -380.876    -516.635    -598.915
  H     -379.407    -517.644    -598.894
  P     -382.783    -519.549    -598.061
  C     -384.082    -517.313    -597.786
  O     -384.031    -518.703    -597.526
  O     -381.525    -518.909    -597.302
  O     -382.856    -521.021    -597.885
  H     -381.299    -519.428    -596.515
  H     -385.101    -516.957    -597.598
  H     -383.831    -517.110    -598.838
  H     -383.393    -516.784    -597.128
  H     -379.347    -514.297    -595.825
  H     -378.515    -513.249    -596.948
  H     -377.766    -514.738    -596.424

 3  4  5  6  7  8  9  10  11  12  23  26  30  31 0
 6-311+G(2d,p)
 ****
 33  35  36  37  38 0
 6-311+G(2d,p)
 ****
 1  2  13  14  15  16  17  18  19  20  21  22  24  25 0
 3-21G
 ****
 27  28  29  32  34  39  40  41  42  43  44  45  46  47  48  49 0
 3-21G
 ****


