%nproc=1
%NoSave
%Mem=1900MB
#P OB98/GEN NMR

erre ene a

0 1
  C      147.397     113.829      -3.637
  O      147.596     112.902      -4.684
  P      147.031     113.115      -6.163
  C      149.369     113.231      -7.291
  O      148.141     113.902      -7.017
  C      149.770     113.294      -8.774
  O      149.047     112.286      -9.509
  C      149.358     114.644      -9.371
  O      150.194     115.777      -9.216
  C      148.960     114.334     -10.809
  O      150.008     114.612     -11.744
  C      148.656     112.836     -10.778
  N      144.635     113.472     -13.802
  C      145.969     113.730     -14.061
  N      146.228     114.415     -15.197
  N      146.943     113.367     -13.269
  C      146.520     112.774     -12.130
  C      145.228     112.450     -11.768
  C      144.167     112.823     -12.670
  O      142.966     112.687     -12.439
  N      145.169     111.923     -10.502
  C      146.415     111.960     -10.080
  N      147.265     112.505     -11.015
  O      145.601     113.541      -6.282
  O      147.140     111.620      -6.761
  H      150.204     115.563     -11.698
  H      146.387     111.493      -7.372
  H      143.921     113.845     -14.413
  H      146.749     111.636      -9.101
  H      149.240     112.304     -11.541
  H      148.103     114.950     -11.115
  H      145.498     114.839     -15.751
  H      148.424     114.935      -8.881
  H      147.168     114.769     -15.330
  H      150.827     113.058      -8.905
  H      149.253     112.191      -6.967
  H      150.165     113.669      -6.686
  P      149.750     117.307      -9.338
  C      149.606     117.747      -6.823
  O      148.890     117.689      -8.044
  O      148.652     117.309     -10.507
  O      150.856     118.257      -9.663
  H      148.585     118.201     -10.891
  H      148.899     117.711      -5.992
  H      150.168     118.687      -6.769
  H      150.303     116.905      -6.736
  H      147.867     113.467      -2.746
  H      146.348     113.951      -3.463
  H      147.825     114.771      -3.909

 3  4  5  6  7  8  9  10  11  12  23  26  30  31 0
 6-311+G(2d,p)
 ****
 33  35  36  37  38 0
 6-311+G(2d,p)
 ****
 1  2  13  14  15  16  17  18  19  20  21  22  24  25 0
 3-21G
 ****
 27  28  29  32  34  39  40  41  42  43  44  45  46  47  48  49 0
 3-21G
 ****


