%nproc=1
%NoSave
%Mem=1900MB
#P OB98/GEN NMR

erre ene a

0 1
  C      148.537     128.706    -556.983
  O      149.302     127.507    -556.840
  P      148.798     126.438    -555.757
  C      148.500     124.663    -557.639
  O      147.935     125.318    -556.508
  C      147.545     123.583    -558.153
  O      146.238     124.123    -558.417
  C      147.992     122.967    -559.471
  O      149.029     122.029    -559.256
  C      146.699     122.351    -559.985
  O      146.539     120.997    -559.529
  C      145.609     123.263    -559.380
  N      144.896     124.033    -560.394
  C      144.083     123.298    -561.257
  O      144.014     122.068    -561.155
  N      143.388     123.969    -562.226
  C      143.512     125.255    -562.341
  N      142.805     125.865    -563.330
  C      144.385     126.062    -561.464
  C      145.043     125.390    -560.518
  O      147.703     127.249    -554.917
  O      149.886     125.911    -554.874
  H      145.862     120.600    -560.120
  H      147.696     126.952    -553.990
  H      144.465     127.128    -561.604
  H      145.706     125.907    -559.831
  H      144.871     122.664    -558.830
  H      146.681     122.320    -561.080
  H      148.326     123.757    -560.158
  H      147.458     122.800    -557.385
  H      142.219     125.278    -563.914
  H      149.458     124.216    -557.376
  H      142.836     126.855    -563.510
  H      148.704     125.409    -558.416
  P      150.455     122.332    -559.921
  C      151.517     122.709    -557.613
  O      151.207     123.281    -558.870
  O      150.075     123.364    -561.082
  O      151.228     121.167    -560.438
  H      150.854     123.553    -561.635
  H      152.201     123.377    -557.083
  H      152.002     121.739    -557.736
  H      150.605     122.603    -557.022
  H      148.982     129.325    -557.734
  H      148.520     129.231    -556.051
  H      147.537     128.459    -557.271

 3  4  5  6  7  8  9  10  11  12  13  21  23  27  28  29  30  32 0
 6-311+G(2d,p)
 ****
 34  35 0
 6-311+G(2d,p)
 ****
 1  2  14  15  16  17  18  19  20  22  24  25  26 0
 3-21G
 ****
 31  33  36  37  38  39  40  41  42  43  44  45  46 0
 3-21G
 ****


