%nproc=1
%NoSave
%Mem=1900MB
#P OB98/GEN NMR

erre ene a

0 1
  C       72.696      50.244     -40.673
  O       72.724      51.539     -40.107
  H       72.331      49.540     -39.920
  H       73.699      49.936     -40.981
  H       72.019      50.218     -41.531
  P       73.299      52.745     -40.988
  C       72.563      53.917     -43.174
  O       72.434      52.773     -42.336
  C       72.726      53.498     -44.633
  O       73.980      52.812     -44.820
  C       71.650      52.540     -45.130
  O       70.438      53.227     -45.360
  C       72.329      51.978     -46.369
  O       72.249      52.903     -47.464
  C       73.791      51.840     -45.876
  N       74.125      50.498     -45.411
  C       74.997      49.765     -46.223
  O       75.426      50.249     -47.270
  N       75.342      48.494     -45.831
  C       74.897      48.015     -44.714
  N       75.279      46.753     -44.382
  C       74.003      48.768     -43.813
  C       73.652      49.985     -44.224
  O       74.781      52.758     -41.203
  O       72.805      54.057     -40.215
  H       71.298      53.003     -47.667
  H       73.494      54.372     -39.600
  H       73.663      48.333     -42.884
  H       72.997      50.606     -43.620
  H       74.491      52.106     -46.679
  H       71.874      51.046     -46.704
  H       71.510      51.723     -44.414
  H       72.754      54.410     -45.245
  H       75.910      46.283     -45.023
  H       73.450      54.464     -42.837
  H       75.129      46.344     -43.471
  H       71.692      54.574     -43.066
  P       69.042      52.448     -45.491
  C       67.612      51.019     -43.903
  O       68.882      51.611     -44.130
  O       68.873      51.654     -46.741
  O       67.949      53.603     -45.316
  H       67.867      54.129     -46.150
  H       67.626      50.491     -42.972
  H       67.390      50.337     -44.697
  H       66.863      51.783     -43.869

 6  7  8  9  10  11  12  13  14  15  16  26  30  31  32  33  35 0
 6-311+G(2d,p)
 ****
 37  38 0
 6-311+G(2d,p)
 ****
 1  2  3  4  5  17  18  19  20  21  22  23  24  25 0
 3-21G
 ****
 27  28  29  34  36  39  40  41  42  43  44  45  46 0
 3-21G
 ****


