%nproc=1
%NoSave
%Mem=1900MB
#P OB98/GEN NMR

erre ene a

0 1
  C     -100.346    -731.591    -327.271
  O     -100.935    -730.599    -326.445
  H     -100.232    -731.177    -328.276
  H     -101.004    -732.462    -327.323
  H      -99.367    -731.885    -326.894
  P     -100.928    -730.819    -324.857
  C      -98.768    -729.477    -324.392
  O      -99.395    -730.753    -324.376
  C      -99.200    -728.642    -323.180
  O      -98.674    -729.252    -321.978
  C      -98.635    -727.219    -323.250
  O      -99.470    -726.280    -322.570
  C      -97.318    -727.344    -322.497
  O      -96.843    -726.098    -321.979
  C      -97.672    -728.366    -321.425
  N      -93.703    -728.636    -318.239
  C      -94.519    -727.559    -318.524
  N      -94.233    -726.398    -317.878
  N      -95.499    -727.604    -319.388
  C      -95.614    -728.803    -320.018
  C      -94.852    -729.935    -319.827
  C      -93.792    -729.880    -318.847
  O      -93.026    -730.801    -318.564
  N      -95.268    -730.956    -320.652
  C      -96.272    -730.437    -321.330
  N      -96.537    -729.143    -320.965
  O     -101.272    -732.379    -324.690
  O     -101.878    -729.955    -324.082
  H      -95.872    -726.175    -321.894
  H     -101.633    -732.549    -323.801
  H      -92.980    -728.552    -317.543
  H      -96.842    -730.966    -322.093
  H      -98.113    -727.873    -320.548
  H      -96.557    -727.711    -323.202
  H      -93.377    -726.275    -317.361
  H      -98.472    -726.877    -324.272
  H      -94.613    -725.545    -318.297
  H     -100.298    -728.657    -323.092
  H      -99.064    -728.988    -325.326
  H      -97.680    -729.590    -324.414
  P      -99.891    -724.932    -323.335
  C     -102.263    -725.671    -324.251
  O     -100.929    -725.276    -324.495
  O      -98.568    -724.510    -324.123
  O     -100.376    -723.833    -322.433
  H      -98.223    -723.660    -323.780
  H     -102.759    -725.846    -325.183
  H     -102.772    -724.897    -323.715
  H     -102.268    -726.570    -323.670

 6  7  8  9  10  11  12  13  14  15  26  29  33  34 0
 6-311+G(2d,p)
 ****
 36  38  39  40  41 0
 6-311+G(2d,p)
 ****
 1  2  3  4  5  16  17  18  19  20  21  22  23  24  25 0
 3-21G
 ****
 27  28  30  31  32  35  37  42  43  44  45  46  47 0
 3-21G
 ****
 48  49 0
 3-21G
 ****


