%nproc=1
%NoSave
%Mem=1900MB
#P OB98/GEN NMR

erre ene a

0 1
  C      833.130    -314.776    -752.515
  O      832.637    -313.975    -751.465
  H      834.098    -315.194    -752.208
  H      833.282    -314.167    -753.409
  H      832.447    -315.600    -752.736
  P      831.084    -313.597    -751.446
  C      831.090    -313.550    -748.863
  O      830.776    -312.848    -750.054
  C      830.699    -312.761    -747.604
  O      831.541    -311.609    -747.445
  C      829.256    -312.224    -747.702
  O      828.241    -313.141    -747.322
  C      829.306    -311.040    -746.736
  O      829.083    -311.461    -745.381
  C      830.755    -310.531    -746.907
  N      831.347    -305.468    -747.189
  C      831.242    -306.279    -746.065
  N      831.221    -305.634    -744.868
  N      831.137    -307.574    -746.119
  C      831.069    -308.073    -747.377
  C      831.152    -307.359    -748.558
  C      831.325    -305.925    -748.489
  O      831.417    -305.168    -749.453
  N      831.044    -308.201    -749.657
  C      830.812    -309.393    -749.125
  N      830.853    -309.362    -747.744
  O      830.356    -315.015    -751.242
  O      830.572    -312.905    -752.673
  H      829.536    -312.310    -745.246
  H      829.454    -314.982    -751.615
  H      831.471    -304.483    -747.081
  H      830.653    -310.303    -749.692
  H      831.200    -310.286    -745.939
  H      828.545    -310.296    -746.978
  H      831.192    -304.631    -744.785
  H      829.051    -311.841    -748.709
  H      830.881    -306.149    -744.056
  H      830.831    -313.395    -746.720
  H      832.172    -313.722    -748.867
  H      830.614    -314.531    -748.864
  P      826.851    -313.163    -748.104
  C      826.459    -315.646    -748.763
  O      826.188    -314.605    -747.858
  O      827.298    -313.214    -749.645
  O      825.951    -312.005    -747.836
  H      827.304    -312.314    -750.026
  H      825.943    -316.531    -748.454
  H      827.512    -315.836    -748.783
  H      826.129    -315.364    -749.741

 6  7  8  9  10  11  12  13  14  15  26  29  33  34 0
 6-311+G(2d,p)
 ****
 36  38  39  40  41 0
 6-311+G(2d,p)
 ****
 1  2  3  4  5  16  17  18  19  20  21  22  23  24  25 0
 3-21G
 ****
 27  28  30  31  32  35  37  42  43  44  45  46  47 0
 3-21G
 ****
 48  49 0
 3-21G
 ****


