%nproc=1
%NoSave
%Mem=1900MB
#P OB98/GEN NMR

erre ene a

0 1
  C       23.183     119.172     630.061
  O       23.200     119.256     631.477
  P       23.794     118.061     632.369
  C       24.667     119.883     633.965
  O       23.925     118.677     633.846
  C       24.520     120.455     635.370
  O       24.879     119.431     636.323
  C       25.405     121.654     635.705
  O       24.888     122.913     635.286
  C       25.403     121.590     637.225
  O       24.176     122.148     637.734
  C       25.454     120.086     637.490
  N       29.231     119.542     640.896
  C       27.978     120.045     641.009
  N       27.039     120.163     640.043
  C       27.489     119.677     638.876
  C       28.735     119.131     638.611
  C       29.637     119.072     639.694
  N       30.909     118.555     639.579
  N       28.826     118.749     637.284
  C       27.661     119.043     636.768
  N       26.805     119.602     637.693
  O       25.025     117.429     631.816
  O       22.577     117.030     632.514
  H       24.100     123.049     637.364
  H       22.916     116.161     632.804
  H       27.692     120.393     641.994
  H       27.383     118.885     635.736
  H       24.857     119.786     638.352
  H       26.229     122.163     637.673
  H       26.427     121.503     635.333
  H       23.459     120.705     635.523
  H       24.266     120.601     633.234
  H       31.434     118.431     640.435
  H       31.144     118.052     638.729
  H       25.719     119.697     633.717
  P       25.950     124.101     635.041
  C       24.179     125.359     633.578
  O       25.069     125.393     634.670
  O       27.037     123.769     634.081
  O       26.460     124.419     636.526
  H       25.802     124.799     637.126
  H       23.563     126.272     633.593
  H       23.516     124.496     633.634
  H       24.743     125.336     632.634
  H       22.750     120.063     629.656
  H       22.602     118.325     629.761
  H       24.184     119.065     629.698

 3  4  5  6  7  8  9  10  11  12  22  25  29  30  31  32 0
 6-311+G(2d,p)
 ****
 33  36  37 0
 6-311+G(2d,p)
 ****
 1  2  13  14  15  16  17  18  19  20  21  23  24  26 0
 3-21G
 ****
 27  28  34  35  38  39  40  41  42  43  44  45  46  47  48 0
 3-21G
 ****


