%nproc=1
%NoSave
%Mem=1900MB
#P OB98/GEN NMR

erre ene a

0 1
  C      483.019    1014.316     475.138
  O      483.913    1013.214     475.110
  H      482.103    1014.028     474.614
  H      483.463    1015.176     474.638
  H      482.771    1014.564     476.177
  P      485.340    1013.423     475.789
  C      485.290    1010.837     475.667
  O      486.085    1012.013     475.620
  C      486.172    1009.600     475.788
  O      487.280    1009.841     476.691
  C      485.445    1008.349     476.312
  O      484.771    1007.693     475.263
  C      486.625    1007.526     476.813
  O      487.232    1006.843     475.714
  C      487.593    1008.604     477.365
  N      490.270    1008.718     481.750
  C      490.597    1008.301     480.515
  N      489.825    1008.241     479.399
  C      488.577    1008.696     479.666
  C      488.096    1009.156     480.891
  C      489.011    1009.162     481.977
  N      488.673    1009.595     483.231
  N      486.780    1009.536     480.789
  C      486.485    1009.364     479.515
  N      487.527    1008.827     478.799
  O      485.322    1013.991     477.178
  O      486.083    1014.337     474.691
  H      486.571    1006.220     475.338
  H      485.863    1014.011     473.793
  H      491.629    1007.953     480.397
  H      485.527    1009.633     479.046
  H      488.633    1008.361     477.131
  H      486.337    1006.775     477.549
  H      484.793    1008.601     477.164
  H      486.608    1009.393     474.787
  H      484.660    1010.767     474.747
  H      489.304    1009.364     483.985
  H      487.681    1009.802     483.427
  H      484.626    1010.919     476.534
  P      483.348    1006.972     475.529
  C      483.038    1007.003     472.967
  O      483.004    1006.196     474.162
  O      482.263    1007.875     476.047
  O      483.711    1005.765     476.529
  H      482.893    1005.452     476.971
  H      482.796    1006.396     472.120
  H      484.018    1007.415     472.843
  H      482.325    1007.797     473.052

 6  7  8  9  10  11  12  13  14  15  25  28  32  33  34  35 0
 6-311+G(2d,p)
 ****
 36  39  40 0
 6-311+G(2d,p)
 ****
 1  2  3  4  5  16  17  18  19  20  21  22  23  24 0
 3-21G
 ****
 26  27  29  30  31  37  38  41  42  43  44  45  46  47 0
 3-21G
 ****
 48 0
 3-21G
 ****


