%nproc=1
%NoSave
%Mem=1900MB
#P OB98/GEN NMR

erre ene a

0 1
  C      206.060      58.868     137.592
  O      206.942      58.235     136.656
  P      207.713      56.930     137.180
  C      209.708      58.072     138.384
  O      209.275      57.288     137.281
  C      211.141      57.692     138.790
  O      211.222      56.357     139.333
  C      212.124      57.716     137.622
  O      212.522      59.059     137.359
  C      213.262      56.857     138.152
  O      214.161      57.616     138.981
  C      212.513      55.801     138.990
  N      214.443      51.152     138.338
  C      214.985      52.258     138.969
  N      216.206      52.097     139.517
  N      214.383      53.417     139.042
  C      213.168      53.436     138.445
  C      212.514      52.398     137.821
  C      213.186      51.123     137.735
  O      212.736      50.109     137.214
  N      211.264      52.779     137.389
  C      211.224      54.077     137.644
  N      212.327      54.508     138.346
  O      207.616      55.921     135.939
  O      207.104      56.334     138.414
  H      214.856      57.023     139.320
  H      207.020      55.183     136.153
  H      214.947      50.284     138.303
  H      210.412      54.735     137.375
  H      213.039      55.598     139.937
  H      213.866      56.441     137.341
  H      216.729      51.230     139.495
  H      211.676      57.253     136.734
  H      216.623      52.888     139.993
  H      211.461      58.398     139.563
  H      209.037      57.926     139.235
  H      209.651      59.123     138.112
  P      211.601      59.935     136.389
  C      212.690      59.341     134.106
  O      212.475      60.325     135.103
  O      211.445      61.315     137.181
  O      210.260      59.333     136.087
  H      210.510      61.615     137.151
  H      212.809      59.841     133.144
  H      211.853      58.638     134.043
  H      213.610      58.789     134.340
  H      205.606      59.721     137.133
  H      206.616      59.179     138.452
  H      205.300      58.176     137.890

 3  4  5  6  7  8  9  10  11  12  23  26  30  31 0
 6-311+G(2d,p)
 ****
 33  35  36  37  38 0
 6-311+G(2d,p)
 ****
 1  2  13  14  15  16  17  18  19  20  21  22  24  25 0
 3-21G
 ****
 27  28  29  32  34  39  40  41  42  43  44  45  46  47  48  49 0
 3-21G
 ****


