%nproc=1
%NoSave
%Mem=1900MB
#P OB98/GEN NMR

erre ene a

0 1
  C       63.154     -50.244    -111.041
  O       62.353     -51.409    -111.019
  P       61.489     -51.780    -109.720
  C       62.255     -53.841    -108.372
  O       62.523     -52.483    -108.709
  C       62.170     -54.706    -109.631
  O       63.312     -54.479    -110.480
  C       62.147     -56.204    -109.357
  O       60.866     -56.609    -108.912
  C       62.553     -56.757    -110.715
  O       61.430     -56.828    -111.607
  C       63.570     -55.702    -111.204
  N       64.950     -56.144    -111.044
  C       65.331     -57.246    -111.820
  O       64.515     -57.803    -112.554
  N       66.617     -57.718    -111.704
  C       67.437     -57.155    -110.872
  N       68.692     -57.676    -110.794
  C       67.063     -56.012    -110.014
  C       65.817     -55.564    -110.150
  O       60.233     -52.540    -109.984
  O       61.236     -50.354    -109.034
  H       61.740     -57.312    -112.398
  H       60.560     -49.830    -109.530
  H       67.778     -55.584    -109.327
  H       65.459     -54.732    -109.556
  H       63.405     -55.473    -112.266
  H       62.969     -57.768    -110.640
  H       62.913     -56.455    -108.613
  H       61.269     -54.410    -110.186
  H       68.898     -58.478    -111.377
  H       61.301     -53.883    -107.841
  H       69.395     -57.338    -110.155
  H       63.040     -54.209    -107.702
  P       60.731     -57.789    -107.838
  C       59.653     -60.055    -108.373
  O       60.733     -59.180    -108.635
  O       59.630     -57.626    -106.842
  O       62.157     -57.791    -107.107
  H       62.021     -57.877    -106.145
  H       59.585     -60.781    -109.189
  H       58.709     -59.507    -108.307
  H       59.834     -60.589    -107.438
  H       63.650     -50.170    -111.986
  H       63.883     -50.297    -110.259
  H       62.536     -49.383    -110.894

 3  4  5  6  7  8  9  10  11  12  13  23  27  28  29  30  32 0
 6-311+G(2d,p)
 ****
 34  35 0
 6-311+G(2d,p)
 ****
 1  2  14  15  16  17  18  19  20  21  22  24  25  26 0
 3-21G
 ****
 31  33  36  37  38  39  40  41  42  43  44  45  46 0
 3-21G
 ****


