%nproc=1
%NoSave
%Mem=1900MB
#P OB98/GEN NMR

erre ene a

0 1
  C     -125.333    -183.548     185.703
  O     -125.501    -184.220     186.938
  H     -125.941    -184.049     184.944
  H     -124.287    -183.577     185.382
  H     -125.663    -182.510     185.788
  P     -124.589    -183.767     188.177
  C     -126.514    -182.251     189.012
  O     -125.148    -182.332     188.618
  C     -127.123    -180.941     188.524
  O     -127.287    -180.968     187.092
  C     -128.510    -180.673     189.095
  O     -128.430    -180.241     190.438
  C     -129.035    -179.650     188.105
  O     -128.525    -178.343     188.388
  C     -128.465    -180.190     186.773
  N     -129.432    -180.988     186.024
  C     -130.363    -180.269     185.267
  O     -130.339    -179.040     185.249
  N     -131.316    -180.972     184.567
  C     -131.327    -182.267     184.607
  N     -132.295    -182.898     183.892
  C     -130.354    -183.062     185.382
  C     -129.449    -182.363     186.066
  O     -123.105    -183.816     187.976
  O     -125.067    -184.726     189.366
  H     -127.564    -178.386     188.208
  H     -124.539    -185.544     189.378
  H     -130.398    -184.141     185.379
  H     -128.695    -182.871     186.659
  H     -128.135    -179.359     186.134
  H     -130.121    -179.593     188.129
  H     -129.129    -181.575     189.014
  H     -126.432    -180.123     188.769
  H     -132.948    -182.313     183.384
  H     -126.540    -182.296     190.106
  H     -132.349    -183.901     183.776
  H     -127.079    -183.103     188.617
  P     -128.900    -181.200     191.637
  C     -126.593    -181.175     192.786
  O     -127.574    -181.967     192.118
  O     -130.071    -182.075     191.328
  O     -129.173    -180.170     192.833
  H     -130.014    -179.666     192.691
  H     -125.761    -181.791     193.057
  H     -127.021    -180.746     193.668
  H     -126.261    -180.394     192.134

 6  7  8  9  10  11  12  13  14  15  16  26  30  31  32  33  35 0
 6-311+G(2d,p)
 ****
 37  38 0
 6-311+G(2d,p)
 ****
 1  2  3  4  5  17  18  19  20  21  22  23  24  25 0
 3-21G
 ****
 27  28  29  34  36  39  40  41  42  43  44  45  46 0
 3-21G
 ****


