%nproc=1
%NoSave
%Mem=1900MB
#P OB98/GEN NMR

erre ene a

0 1
  C      484.443    -421.910     541.952
  O      483.910    -422.710     543.004
  P      482.519    -422.338     543.707
  C      481.744    -420.391     545.205
  O      482.863    -421.101     544.674
  C      481.856    -420.306     546.725
  O      483.188    -419.812     547.066
  C      480.885    -419.348     547.424
  O      479.593    -419.896     547.680
  C      481.619    -419.110     548.731
  O      481.403    -420.227     549.620
  C      483.077    -419.049     548.286
  N      485.582    -415.078     550.319
  C      485.315    -416.326     550.802
  N      484.624    -417.308     550.203
  C      484.228    -416.942     548.976
  C      484.433    -415.724     548.359
  C      485.143    -414.751     549.075
  N      485.450    -413.501     548.587
  N      483.873    -415.704     547.088
  C      483.335    -416.902     546.952
  N      483.537    -417.691     548.058
  O      481.826    -423.489     544.359
  O      481.652    -421.656     542.541
  H      481.901    -420.052     550.437
  H      480.715    -421.636     542.797
  H      485.688    -416.540     551.789
  H      482.805    -417.258     546.079
  H      483.764    -419.513     549.025
  H      481.261    -418.223     549.257
  H      480.805    -418.396     546.875
  H      481.765    -421.330     547.139
  H      480.830    -420.940     544.940
  H      486.078    -412.932     549.136
  H      485.266    -413.325     547.601
  H      481.701    -419.391     544.761
  P      478.388    -418.861     547.905
  C      478.358    -416.594     549.220
  O      478.857    -417.926     549.126
  O      477.047    -419.506     548.054
  O      478.493    -417.903     546.620
  H      479.301    -417.337     546.601
  H      478.666    -416.196     550.178
  H      477.263    -416.581     549.160
  H      478.784    -415.980     548.420
  H      485.372    -422.327     541.622
  H      484.605    -420.914     542.308
  H      483.752    -421.888     541.135

 3  4  5  6  7  8  9  10  11  12  22  25  29  30  31  32 0
 6-311+G(2d,p)
 ****
 33  36  37 0
 6-311+G(2d,p)
 ****
 1  2  13  14  15  16  17  18  19  20  21  23  24  26 0
 3-21G
 ****
 27  28  34  35  38  39  40  41  42  43  44  45  46  47  48 0
 3-21G
 ****


