%nproc=1
%NoSave
%Mem=1900MB
#P OB98/GEN NMR

erre ene a

0 1
  C       25.411      96.300     -15.224
  O       25.222      95.270     -14.274
  H       26.215      96.005     -15.905
  H       25.695      97.235     -14.733
  H       24.498      96.447     -15.806
  P       24.208      95.517     -13.059
  C       24.418      96.516     -10.692
  O       24.989      96.430     -11.993
  C       24.867      97.797      -9.989
  O       26.311      97.755      -9.826
  C       24.511      99.078     -10.752
  O       24.151     100.084      -9.804
  C       25.815      99.432     -11.438
  O       25.881     100.809     -11.755
  C       26.858      98.945     -10.426
  N       28.146      98.695     -11.071
  C       29.009      99.792     -11.188
  O       28.678     100.893     -10.749
  N       30.195      99.633     -11.859
  C       30.474      98.493     -12.415
  N       31.648      98.416     -13.097
  C       29.582      97.320     -12.337
  C       28.448      97.487     -11.658
  O       23.561      94.300     -12.483
  O       23.122      96.523     -13.670
  H       25.983     101.327     -10.930
  H       22.383      96.019     -14.061
  H       29.857      96.395     -12.824
  H       27.725      96.683     -11.559
  H       27.000      99.689      -9.628
  H       25.907      98.863     -12.374
  H       23.697      98.932     -11.473
  H       24.435      97.811      -8.979
  H       32.217      99.256     -13.141
  H       24.754      95.644     -10.119
  H       31.953      97.599     -13.606
  H       23.328      96.489     -10.765
  P       22.695     100.762      -9.840
  C       21.692     102.966     -10.674
  O       22.716     101.996     -10.869
  O       22.120     101.083      -8.498
  O       21.786      99.673     -10.593
  H       20.869      99.738     -10.264
  H       21.792     103.742     -11.404
  H       21.780     103.386      -9.694
  H       20.735     102.500     -10.778

 6  7  8  9  10  11  12  13  14  15  16  26  30  31  32  33  35 0
 6-311+G(2d,p)
 ****
 37  38 0
 6-311+G(2d,p)
 ****
 1  2  3  4  5  17  18  19  20  21  22  23  24  25 0
 3-21G
 ****
 27  28  29  34  36  39  40  41  42  43  44  45  46 0
 3-21G
 ****


