%nproc=1
%NoSave
%Mem=1900MB
#P OB98/GEN NMR

erre ene a

0 1
  C     -198.564     461.861     210.691
  O     -199.828     462.159     211.252
  H     -198.707     461.533     209.656
  H     -198.070     461.060     211.247
  H     -197.936     462.756     210.689
  P     -199.915     462.394     212.837
  C     -200.542     464.805     212.175
  O     -199.765     463.983     213.043
  C     -200.907     466.129     212.851
  O     -201.670     466.964     211.953
  C     -201.782     465.977     214.086
  O     -201.158     465.344     215.176
  C     -202.333     467.386     214.251
  O     -201.419     468.249     214.933
  C     -202.483     467.834     212.776
  N     -203.878     467.839     212.339
  C     -204.423     469.089     212.062
  O     -203.802     470.146     212.189
  N     -205.729     469.086     211.659
  C     -206.538     467.994     211.559
  O     -207.713     468.066     211.208
  C     -205.916     466.706     211.902
  C     -204.634     466.689     212.270
  O     -198.961     461.584     213.665
  O     -201.453     462.125     213.181
  H     -201.864     469.110     215.032
  H     -201.587     461.999     214.153
  H     -206.140     469.981     211.435
  H     -206.530     465.818     211.843
  H     -204.149     465.743     212.529
  H     -202.084     468.848     212.643
  H     -203.268     467.396     214.813
  H     -202.636     465.341     213.821
  H     -199.976     466.660     213.085
  H     -201.459     464.259     211.930
  H     -199.983     464.993     211.252
  P     -201.834     465.181     216.612
  C     -203.087     462.984     215.949
  O     -203.170     464.312     216.449
  O     -201.887     466.398     217.470
  O     -200.836     464.125     217.322
  H     -200.805     464.351     218.275
  H     -204.067     462.557     215.907
  H     -202.470     462.397     216.596
  H     -202.662     462.998     214.967

 6  7  8  9  10  11  12  13  14  15  16  26  31  32  33  34  35 0
 6-311+G(2d,p)
 ****
 36  37 0
 6-311+G(2d,p)
 ****
 1  2  3  4  5  17  18  19  20  21  22  23  24  25 0
 3-21G
 ****
 27  28  29  30  38  39  40  41  42  43  44  45 0
 3-21G
 ****


