%nproc=1
%NoSave
%Mem=1900MB
#P OB98/GEN NMR

erre ene a

0 1
  C      165.956       9.782      20.398
  O      166.688       9.756      21.601
  P      166.925       8.437      22.465
  C      164.560       8.514      23.579
  O      165.501       7.782      22.800
  C      163.228       7.757      23.685
  O      162.717       7.533      22.346
  C      163.414       6.374      24.330
  O      162.393       6.023      25.258
  C      163.606       5.461      23.126
  O      163.353       4.092      23.405
  C      162.689       6.112      22.094
  N      161.153       4.454      17.543
  C      160.395       4.773      18.652
  N      159.089       4.434      18.596
  N      160.889       5.336      19.725
  C      162.230       5.511      19.678
  C      163.084       5.236      18.635
  C      162.521       4.645      17.443
  O      163.173       4.241      16.480
  N      164.390       5.478      18.967
  C      164.334       5.870      20.226
  N      163.046       5.872      20.711
  O      167.932       8.530      23.566
  O      167.509       7.419      21.355
  H      163.696       3.571      22.655
  H      168.156       6.841      21.807
  H      160.729       3.946      16.775
  H      165.190       6.130      20.839
  H      161.658       5.772      22.203
  H      164.653       5.534      22.821
  H      158.716       3.870      17.847
  H      164.325       6.353      24.939
  H      158.577       4.427      19.475
  H      162.502       8.378      24.222
  H      164.411       9.469      23.063
  H      164.964       8.727      24.570
  P      162.528       5.265      26.656
  C      161.588       3.054      25.752
  O      162.688       3.696      26.371
  O      161.078       5.359      27.321
  O      163.557       5.833      27.577
  H      161.168       5.513      28.281
  H      161.704       1.973      25.867
  H      161.573       3.300      24.687
  H      160.646       3.363      26.215
  H      165.940      10.780      20.011
  H      164.954       9.456      20.583
  H      166.417       9.131      19.686

 3  4  5  6  7  8  9  10  11  12  23  26  30  31 0
 6-311+G(2d,p)
 ****
 33  35  36  37  38 0
 6-311+G(2d,p)
 ****
 1  2  13  14  15  16  17  18  19  20  21  22  24  25 0
 3-21G
 ****
 27  28  29  32  34  39  40  41  42  43  44  45  46  47  48  49 0
 3-21G
 ****


