%nproc=1
%NoSave
%Mem=1900MB
#P OB98/GEN NMR

erre ene a

0 1
  C     -328.500    -383.139     -36.522
  O     -327.665    -382.859     -35.416
  P     -326.401    -381.893     -35.685
  C     -324.566    -383.756     -35.773
  O     -325.323    -382.779     -36.475
  C     -323.139    -383.799     -36.321
  O     -323.157    -383.941     -37.757
  C     -322.323    -382.548     -36.025
  O     -321.797    -382.594     -34.713
  C     -321.262    -382.613     -37.118
  O     -320.202    -383.522     -36.750
  C     -322.067    -383.151     -38.309
  N     -320.851    -379.315     -41.376
  C     -320.059    -380.044     -40.500
  N     -318.746    -379.729     -40.477
  N     -320.515    -380.993     -39.728
  C     -321.853    -381.191     -39.848
  C     -322.736    -380.525     -40.662
  C     -322.213    -379.514     -41.552
  O     -322.849    -378.910     -42.410
  N     -324.017    -380.988     -40.495
  C     -323.893    -381.949     -39.601
  N     -322.595    -382.129     -39.189
  O     -325.770    -381.716     -34.224
  O     -326.727    -380.587     -36.342
  H     -319.512    -383.488     -37.432
  H     -326.055    -380.868     -33.829
  H     -320.436    -378.608     -41.956
  H     -324.707    -382.560     -39.236
  H     -321.469    -383.830     -38.938
  H     -320.795    -381.644     -37.299
  H     -318.329    -378.996     -41.027
  H     -322.942    -381.646     -36.165
  H     -318.146    -380.249     -39.837
  H     -322.648    -384.683     -35.901
  H     -325.040    -384.738     -35.906
  H     -324.566    -383.517     -34.703
  P     -321.932    -381.278     -33.809
  C     -319.470    -380.463     -33.945
  O     -320.818    -380.242     -34.312
  O     -321.397    -381.753     -32.376
  O     -323.324    -380.734     -33.716
  H     -321.909    -381.314     -31.671
  H     -318.824    -380.059     -34.733
  H     -319.256    -381.534     -33.824
  H     -319.259    -379.944     -33.008
  H     -329.295    -383.785     -36.214
  H     -327.928    -383.618     -37.289
  H     -328.909    -382.226     -36.900

 3  4  5  6  7  8  9  10  11  12  23  26  30  31 0
 6-311+G(2d,p)
 ****
 33  35  36  37  38 0
 6-311+G(2d,p)
 ****
 1  2  13  14  15  16  17  18  19  20  21  22  24  25 0
 3-21G
 ****
 27  28  29  32  34  39  40  41  42  43  44  45  46  47  48  49 0
 3-21G
 ****


