%nproc=1
%NoSave
%Mem=1900MB
#P OB98/GEN NMR

erre ene a

0 1
  C       -5.982     177.049    -121.831
  O       -6.997     177.923    -122.334
  P       -7.989     177.314    -123.446
  C       -8.366     177.668    -125.999
  O       -7.551     177.927    -124.864
  C       -7.974     178.570    -127.166
  O       -8.632     179.848    -127.077
  C       -6.486     178.893    -127.236
  O       -5.745     177.827    -127.814
  C       -6.492     180.107    -128.153
  O       -6.546     179.684    -129.529
  C       -7.795     180.821    -127.756
  N       -6.962     185.815    -127.481
  C       -7.122     185.000    -128.588
  N       -7.075     185.614    -129.791
  N       -7.306     183.710    -128.520
  C       -7.358     183.239    -127.252
  C       -7.211     183.940    -126.075
  C       -6.976     185.368    -126.166
  O       -6.796     186.125    -125.216
  N       -7.333     183.120    -124.982
  C       -7.579     181.928    -125.495
  N       -7.590     181.947    -126.868
  O       -9.372     178.057    -123.136
  O       -8.123     175.830    -123.391
  H       -5.713     179.210    -129.713
  H      -10.122     177.504    -123.430
  H       -6.813     186.804    -127.589
  H       -7.760     181.030    -124.919
  H       -8.353     181.168    -128.634
  H       -5.592     180.723    -128.046
  H       -7.010     186.612    -129.915
  H       -6.099     179.173    -126.247
  H       -7.227     185.039    -130.613
  H       -8.294     178.079    -128.097
  H       -9.416     177.834    -125.746
  H       -8.270     176.611    -126.270
  P       -5.442     176.556    -126.884
  C       -3.519     175.972    -125.241
  O       -3.967     176.792    -126.300
  O       -5.258     175.368    -127.940
  O       -6.507     176.255    -125.879
  H       -5.511     174.515    -127.536
  H       -3.790     174.926    -125.407
  H       -3.953     176.319    -124.296
  H       -2.429     176.044    -125.178
  H       -5.393     177.568    -121.104
  H       -5.354     176.730    -122.637
  H       -6.440     176.195    -121.376

 3  4  5  6  7  8  9  10  11  12  23  26  30  31  33  0
 6-311+G(2d,p)
 ****
 35  36  37  38 0
 6-311+G(2d,p)
 ****
 1  2  13  14  15  16  17  18  19  20  21  22  24  25  27  28  29 0
 3-21G
 ****
 32  34  39  40  41  42  43  44  45  46  47  48  49 0
 3-21G
 ****


