%nproc=1
%NoSave
%Mem=1900MB
#P OB98/GEN NMR

erre ene a

0 1
  C       28.382     101.683     -50.248
  O       28.695     102.135     -51.567
  P       27.675     103.200     -52.206
  C       28.626     105.610     -52.121
  O       28.551     104.388     -52.839
  C       29.840     106.435     -52.565
  O       31.082     105.752     -52.216
  C       29.883     106.702     -54.078
  O       30.448     108.008     -54.250
  C       30.844     105.629     -54.563
  O       31.348     105.874     -55.865
  C       31.862     105.661     -53.428
  N       35.742     103.327     -55.778
  C       35.073     104.469     -56.053
  N       34.043     105.023     -55.378
  C       33.723     104.272     -54.310
  C       34.310     103.085     -53.903
  C       35.371     102.608     -54.692
  N       36.044     101.436     -54.432
  N       33.684     102.596     -52.766
  C       32.695     103.442     -52.547
  N       32.731     104.508     -53.400
  O       26.986     103.868     -50.927
  O       26.680     102.589     -53.136
  H       31.889     106.690     -55.863
  H       26.111     103.471     -50.764
  H       35.407     105.007     -56.937
  H       31.931     103.331     -51.789
  H       32.505     106.549     -53.475
  H       30.325     104.663     -54.588
  H       28.902     106.670     -54.559
  H       29.827     107.387     -52.020
  H       28.702     105.411     -51.049
  H       36.789     101.174     -55.059
  H       35.791     100.865     -53.640
  H       27.694     106.166     -52.266
  P       29.477     109.226     -54.634
  C       28.440     109.797     -52.358
  O       29.430     110.135     -53.311
  O       28.051     108.498     -54.563
  O       29.754     109.909     -55.931
  H       27.949     108.002     -53.731
  H       28.568     110.434     -51.480
  H       28.544     108.751     -52.058
  H       27.445     109.970     -52.778
  H       29.123     100.982     -49.926
  H       27.422     101.210     -50.251
  H       28.366     102.518     -49.579

 3  4  5  6  7  8  9  10  11  12  22  25  29  30  31  32 0
 6-311+G(2d,p)
 ****
 33  36  37 0
 6-311+G(2d,p)
 ****
 1  2  13  14  15  16  17  18  19  20  21  23  24  26 0
 3-21G
 ****
 27  28  34  35  38  39  40  41  42  43  44  45  46  47  48 0
 3-21G
 ****


