%nproc=1
%NoSave
%Mem=1900MB
#P OB98/GEN NMR

erre ene a

0 1
  C     -266.471     428.982     121.266
  O     -266.605     428.297     120.038
  H     -267.318     428.718     121.906
  H     -266.473     430.062     121.108
  H     -265.547     428.681     121.770
  P     -265.544     428.601     118.875
  C     -265.804     426.094     118.304
  O     -265.685     427.417     117.805
  C     -265.196     425.082     117.320
  O     -266.187     424.770     116.295
  C     -263.940     425.597     116.596
  O     -263.118     424.462     116.307
  C     -264.541     426.163     115.324
  O     -263.551     426.404     114.352
  C     -265.596     425.098     115.017
  N     -266.591     425.556     114.060
  C     -266.286     425.352     112.708
  O     -265.221     424.832     112.386
  N     -267.180     425.781     111.761
  C     -268.252     426.418     112.126
  N     -269.090     426.824     111.133
  C     -268.583     426.698     113.537
  C     -267.716     426.242     114.444
  O     -264.148     428.878     119.326
  O     -266.167     429.859     118.107
  H     -262.837     426.977     114.717
  H     -265.676     430.667     118.341
  H     -269.479     427.245     113.784
  H     -267.875     426.402     115.506
  H     -265.129     424.184     114.626
  H     -265.023     427.129     115.522
  H     -263.382     426.334     117.183
  H     -264.986     424.148     117.855
  H     -268.821     426.616     110.184
  H     -266.871     425.886     118.437
  H     -269.940     427.339     111.298
  H     -265.301     426.008     119.274
  P     -261.618     424.310     116.858
  C     -261.408     421.886     115.993
  O     -260.849     423.193     115.999
  O     -261.532     424.102     118.336
  O     -260.884     425.670     116.437
  H     -260.199     425.878     117.104
  H     -260.804     421.243     115.388
  H     -262.400     421.924     115.593
  H     -261.441     421.508     116.993

 6  7  8  9  10  11  12  13  14  15  16  26  30  31  32  33  35 0
 6-311+G(2d,p)
 ****
 37  38 0
 6-311+G(2d,p)
 ****
 1  2  3  4  5  17  18  19  20  21  22  23  24  25 0
 3-21G
 ****
 27  28  29  34  36  39  40  41  42  43  44  45  46 0
 3-21G
 ****


