%nproc=1
%NoSave
%Mem=1900MB
#P OB98/GEN NMR

erre ene a

0 1
  C      -40.452    -245.819     553.256
  O      -40.163    -247.058     552.643
  H      -39.512    -245.357     553.574
  H      -41.083    -245.966     554.135
  H      -40.946    -245.148     552.546
  P      -41.378    -247.973     552.140
  C      -40.025    -248.862     550.128
  O      -40.732    -249.195     551.317
  C      -39.235    -250.077     549.625
  O      -38.041    -250.201     550.442
  C      -40.036    -251.385     549.738
  O      -40.084    -252.120     548.520
  C      -39.409    -252.068     550.957
  O      -39.526    -253.477     550.963
  C      -37.967    -251.542     550.949
  N      -37.322    -251.565     552.260
  C      -37.105    -252.805     552.849
  O      -37.405    -253.887     552.344
  N      -36.505    -252.785     554.081
  C      -36.125    -251.668     554.768
  O      -35.590    -251.708     555.871
  C      -36.408    -250.378     554.108
  C      -36.980    -250.386     552.906
  O      -42.473    -247.254     551.429
  O      -41.909    -248.684     553.475
  H      -38.829    -253.823     551.562
  H      -42.749    -248.267     553.754
  H      -36.326    -253.675     554.509
  H      -36.130    -249.475     554.635
  H      -37.203    -249.457     552.395
  H      -37.349    -252.126     550.265
  H      -39.913    -251.700     551.857
  H      -41.090    -251.185     549.955
  H      -38.915    -249.890     548.594
  H      -39.350    -248.037     550.357
  H      -40.735    -248.540     549.354
  P      -41.327    -252.990     548.026
  C      -41.604    -252.024     545.599
  O      -41.264    -253.128     546.434
  O      -42.653    -252.645     548.621
  O      -40.961    -254.489     548.519
  H      -41.814    -254.928     548.721
  H      -41.501    -252.308     544.573
  H      -40.950    -251.203     545.809
  H      -42.616    -251.732     545.789

 6  7  8  9  10  11  12  13  14  15  16  26  31  32  33  34  35 0
 6-311+G(2d,p)
 ****
 36  37 0
 6-311+G(2d,p)
 ****
 1  2  3  4  5  17  18  19  20  21  22  23  24  25 0
 3-21G
 ****
 27  28  29  30  38  39  40  41  42  43  44  45 0
 3-21G
 ****


