%nproc=1
%NoSave
%Mem=1900MB
#P OB98/GEN NMR

erre ene a

0 1
  C     -484.673     -87.379    -264.473
  O     -485.871     -87.174    -265.200
  H     -484.627     -88.422    -264.160
  H     -484.668     -86.745    -263.583
  H     -483.796     -87.160    -265.090
  P     -486.055     -85.811    -266.021
  C     -485.711     -87.050    -268.255
  O     -485.267     -86.009    -267.408
  C     -484.647     -87.390    -269.314
  O     -483.329     -87.204    -268.726
  C     -484.717     -88.838    -269.829
  O     -484.266     -88.834    -271.185
  C     -483.705     -89.533    -268.934
  O     -483.302     -90.774    -269.468
  C     -482.625     -88.450    -268.839
  N     -481.713     -88.668    -267.714
  C     -480.768     -89.682    -267.871
  O     -480.711     -90.401    -268.867
  N     -479.925     -89.898    -266.803
  C     -479.976     -89.233    -265.612
  O     -479.215     -89.481    -264.684
  C     -481.015     -88.203    -265.490
  C     -481.823     -87.966    -266.536
  O     -485.724     -84.556    -265.279
  O     -487.588     -85.840    -266.490
  H     -482.909     -91.333    -268.765
  H     -487.934     -84.919    -266.562
  H     -479.239     -90.617    -266.899
  H     -481.086     -87.665    -264.550
  H     -482.598     -87.209    -266.476
  H     -482.029     -88.423    -269.753
  H     -484.135     -89.732    -267.941
  H     -485.714     -89.275    -269.757
  H     -484.739     -86.680    -270.135
  H     -486.629     -86.719    -268.752
  H     -485.936     -87.945    -267.664
  P     -485.230     -88.448    -272.411
  C     -483.813     -86.476    -273.258
  O     -485.068     -86.881    -272.719
  O     -486.652     -88.892    -272.240
  O     -484.567     -89.152    -273.690
  H     -485.256     -89.347    -274.348
  H     -483.820     -85.419    -273.422
  H     -483.644     -86.980    -274.187
  H     -483.032     -86.725    -272.570

 6  7  8  9  10  11  12  13  14  15  16  26  31  32  33  34  35 0
 6-311+G(2d,p)
 ****
 36  37 0
 6-311+G(2d,p)
 ****
 1  2  3  4  5  17  18  19  20  21  22  23  24  25 0
 3-21G
 ****
 27  28  29  30  38  39  40  41  42  43  44  45 0
 3-21G
 ****


