%nproc=1
%NoSave
%Mem=1900MB
#P OB98/GEN NMR

erre ene a

0 1
  C     -484.475     111.428     -37.435
  O     -483.709     112.615     -37.288
  P     -482.444     112.559     -36.307
  C     -483.315     114.187     -34.464
  O     -482.988     112.846     -34.827
  C     -483.489     114.296     -32.955
  O     -484.525     113.398     -32.510
  C     -482.251     113.921     -32.148
  O     -481.284     114.957     -32.188
  C     -482.877     113.697     -30.772
  O     -483.128     114.951     -30.118
  C     -484.210     113.010     -31.144
  N     -485.491     108.903     -28.361
  C     -485.669     110.228     -28.151
  N     -485.282     111.265     -28.919
  C     -484.650     110.819     -30.026
  C     -484.371     109.501     -30.368
  C     -484.831     108.518     -29.479
  N     -484.643     107.168     -29.696
  N     -483.685     109.432     -31.556
  C     -483.564     110.687     -31.945
  N     -484.139     111.569     -31.060
  O     -481.634     113.888     -36.673
  O     -481.589     111.332     -36.450
  H     -483.517     114.747     -29.246
  H     -480.669     113.752     -36.583
  H     -486.202     110.496     -27.237
  H     -483.066     111.020     -32.848
  H     -485.038     113.342     -30.503
  H     -482.243     113.099     -30.102
  H     -481.813     112.994     -32.524
  H     -483.798     115.325     -32.721
  H     -484.254     114.474     -34.953
  H     -484.864     106.537     -28.941
  H     -484.029     106.892     -30.455
  H     -482.529     114.854     -34.830
  P     -479.857     114.662     -31.506
  C     -479.964     116.574     -29.777
  O     -480.052     115.177     -29.994
  O     -478.946     115.806     -32.152
  O     -479.364     113.269     -31.673
  H     -479.373     116.677     -32.097
  H     -480.166     116.786     -28.733
  H     -480.702     117.094     -30.391
  H     -478.952     116.922     -30.029
  H     -485.283     111.607     -38.114
  H     -484.867     111.136     -36.483
  H     -483.852     110.647     -37.819

 3  4  5  6  7  8  9  10  11  12  22  25  29  30  31  32 0
 6-311+G(2d,p)
 ****
 33  36  37 0
 6-311+G(2d,p)
 ****
 1  2  13  14  15  16  17  18  19  20  21  23  24  26 0
 3-21G
 ****
 27  28  34  35  38  39  40  41  42  43  44  45  46  47  48 0
 3-21G
 ****


