%nproc=1
%NoSave
%Mem=1900MB
#P OB98/GEN NMR

erre ene a

0 1
  C      159.783     106.605      91.762
  O      160.876     106.190      90.969
  H      159.009     107.053      91.135
  H      159.363     105.730      92.268
  H      160.113     107.323      92.517
  P      161.647     107.331      90.144
  C      160.277     106.638      88.047
  O      160.693     107.692      88.904
  C      159.353     107.190      86.966
  O      158.086     107.576      87.544
  C      159.883     108.434      86.264
  O      160.821     108.120      85.248
  C      158.598     108.990      85.673
  O      158.234     108.233      84.503
  C      157.596     108.732      86.807
  N      156.041     113.585      87.265
  C      156.073     112.744      86.209
  N      156.506     111.468      86.168
  C      156.940     111.075      87.376
  C      156.975     111.822      88.541
  C      156.488     113.139      88.461
  N      156.468     114.003      89.532
  N      157.522     111.087      89.578
  C      157.779     109.908      89.050
  N      157.455     109.853      87.720
  O      162.857     106.542      89.452
  O      162.109     108.505      90.940
  H      158.124     107.309      84.792
  H      163.562     107.168      89.200
  H      155.703     113.153      85.272
  H      158.197     109.066      89.585
  H      156.595     108.484      86.436
  H      158.684     110.035      85.368
  H      160.292     109.160      86.980
  H      159.158     106.386      86.244
  H      159.739     105.888      88.634
  H      156.277     114.972      89.325
  H      156.938     113.727      90.382
  H      161.158     106.174      87.594
  P      162.076     109.104      85.074
  C      160.865     110.423      83.185
  O      161.484     110.465      84.468
  O      162.873     108.463      83.844
  O      162.929     109.250      86.290
  H      163.821     108.689      83.888
  H      160.524     111.402      82.922
  H      160.033     109.751      83.212
  H      161.574     110.085      82.458

 6  7  8  9  10  11  12  13  14  15  25  28  32  33  34  35 0
 6-311+G(2d,p)
 ****
 36  39  40 0
 6-311+G(2d,p)
 ****
 1  2  3  4  5  16  17  18  19  20  21  22  23  24 0
 3-21G
 ****
 26  27  29  30  31  37  38  41  42  43  44  45  46  47 0
 3-21G
 ****
 48 0
 3-21G
 ****


