%nproc=1
%NoSave
%Mem=1900MB
#P OB98/GEN NMR

erre ene a

0 1
  C     -896.410    -177.560    -893.150
  O     -897.120    -176.617    -893.930
  H     -895.500    -177.849    -893.690
  H     -897.010    -178.449    -892.970
  H     -896.110    -177.115    -892.190
  P     -898.540    -176.112    -893.400
  C     -898.440    -173.537    -893.530
  O     -898.310    -174.686    -892.710
  C     -897.110    -172.759    -893.590
  O     -896.080    -173.629    -894.120
  C     -897.170    -171.507    -894.500
  O     -896.260    -170.551    -893.960
  C     -896.650    -172.073    -895.810
  O     -896.300    -171.053    -896.710
  C     -895.530    -172.978    -895.290
  N     -895.090    -173.943    -896.290
  C     -894.310    -173.440    -897.330
  O     -894.030    -172.243    -897.370
  N     -893.880    -174.305    -898.310
  C     -894.260    -175.549    -898.290
  N     -893.810    -176.338    -899.310
  C     -895.150    -176.104    -897.250
  C     -895.520    -175.256    -896.280
  O     -899.310    -177.090    -892.560
  O     -899.340    -175.748    -894.740
  H     -896.950    -170.311    -896.670
  H     -900.000    -176.444    -894.930
  H     -895.450    -177.134    -897.290
  H     -896.170    -175.569    -895.470
  H     -894.660    -172.387    -894.980
  H     -897.430    -172.673    -896.310
  H     -898.170    -171.074    -894.570
  H     -896.820    -172.483    -892.570
  H     -893.220    -175.922    -900.000
  H     -899.230    -172.907    -893.100
  H     -894.060    -177.317    -899.400
  H     -898.730    -173.831    -894.550
  P     -896.470    -169.840    -892.540
  C     -894.290    -170.362    -891.280
  O     -895.680    -170.655    -891.420
  O     -897.900    -169.569    -892.210
  O     -895.660    -168.455    -892.650
  H     -896.100    -167.790    -892.080
  H     -893.874    -170.968    -890.503
  H     -894.167    -169.329    -891.031
  H     -893.787    -170.569    -892.201

 6  7  8  9  10  11  12  13  14  15  16  26  30  31  32  33  35 0
 6-311+G(2d,p)
 ****
 37  38 0
 6-311+G(2d,p)
 ****
 1  2  3  4  5  17  18  19  20  21  22  23  24  25 0
 3-21G
 ****
 27  28  29  34  36  39  40  41  42  43  44  45  46 0
 3-21G
 ****


