%nproc=1
%NoSave
%Mem=1900MB
#P OB98/GEN NMR

erre ene a

0 1
  C      334.942    -172.387     522.966
  O      334.540    -172.999     521.751
  P      333.986    -174.506     521.822
  C      336.309    -175.493     521.205
  O      335.243    -175.453     522.145
  C      336.895    -176.901     521.103
  O      337.906    -176.914     520.056
  C      337.563    -177.414     522.391
  O      337.323    -178.821     522.453
  C      339.029    -177.115     522.130
  O      339.926    -177.817     522.977
  C      339.113    -177.455     520.645
  N      344.162    -177.951     519.995
  C      343.257    -178.726     520.643
  N      341.928    -178.529     520.765
  C      341.548    -177.411     520.121
  C      342.356    -176.524     519.433
  C      343.726    -176.832     519.385
  N      344.650    -176.037     518.730
  N      341.618    -175.475     518.925
  C      340.381    -175.728     519.300
  N      340.287    -176.898     520.008
  O      333.654    -174.842     520.294
  O      332.794    -174.698     522.713
  H      340.845    -177.573     522.760
  H      332.837    -175.372     520.219
  H      343.651    -179.610     521.130
  H      339.527    -175.095     519.097
  H      339.117    -178.537     520.471
  H      339.210    -176.048     522.291
  H      337.169    -176.943     523.299
  H      336.097    -177.588     520.796
  H      337.102    -174.814     521.535
  H      345.621    -176.234     518.919
  H      344.352    -175.113     518.458
  H      335.950    -175.142     520.231
  P      337.092    -179.510     523.888
  C      339.587    -179.992     524.284
  O      338.470    -179.227     524.669
  O      337.255    -181.058     523.509
  O      335.823    -179.168     524.582
  H      338.072    -181.222     523.002
  H      340.467    -179.632     524.823
  H      339.768    -179.893     523.206
  H      339.426    -181.044     524.540
  H      335.286    -171.393     522.768
  H      335.733    -172.957     523.408
  H      334.111    -172.349     523.639

 3  4  5  6  7  8  9  10  11  12  22  25  29  30  31  32 0
 6-311+G(2d,p)
 ****
 33  36  37 0
 6-311+G(2d,p)
 ****
 1  2  13  14  15  16  17  18  19  20  21  23  24  26 0
 3-21G
 ****
 27  28  34  35  38  39  40  41  42  43  44  45  46  47  48 0
 3-21G
 ****


