%nproc=1
%NoSave
%Mem=1900MB
#P OB98/GEN NMR

erre ene a

0 1
  C     -889.840     784.498     307.061
  O     -890.940     783.920     307.753
  H     -889.630     785.485     307.496
  H     -890.090     784.628     306.002
  H     -888.950     783.872     307.168
  P     -891.430     782.493     307.217
  C     -893.490     781.754     305.803
  O     -892.560     782.787     306.108
  C     -894.630     782.295     304.973
  O     -895.540     783.079     305.779
  C     -894.210     783.181     303.801
  O     -893.840     782.409     302.670
  C     -895.480     784.003     303.572
  O     -896.440     783.255     302.805
  C     -895.970     784.231     305.007
  N     -897.410     788.672     306.961
  C     -898.150     787.693     306.335
  N     -899.480     787.928     306.181
  N     -897.650     786.564     305.888
  C     -896.310     786.483     306.057
  C     -895.450     787.371     306.657
  C     -896.030     788.586     307.192
  O     -895.440     789.460     307.824
  N     -894.160     786.931     306.653
  C     -894.230     785.768     306.018
  N     -895.510     785.456     305.635
  O     -892.270     781.905     308.448
  O     -890.350     781.549     306.801
  H     -896.510     782.354     303.163
  H     -892.120     780.939     308.507
  H     -897.860     789.499     307.307
  H     -893.380     785.110     305.832
  H     -897.070     784.264     305.059
  H     -895.270     784.903     303.004
  H     -899.850     788.870     306.240
  H     -893.400     783.856     304.104
  H     -900.000     787.248     305.649
  H     -895.210     781.431     304.594
  H     -893.870     781.347     306.739
  H     -892.970     780.959     305.275
  P     -893.140     783.166     301.441
  C     -893.930     784.642     299.475
  O     -894.230     784.117     300.750
  O     -892.950     781.965     300.371
  O     -891.820     783.802     301.775
  H     -892.000     781.705     300.336
  H     -894.742     785.253     299.141
  H     -893.781     783.838     298.784
  H     -893.039     785.232     299.533

 6  7  8  9  10  11  12  13  14  15  26  29  33  34 0
 6-311+G(2d,p)
 ****
 36  38  39  40  41 0
 6-311+G(2d,p)
 ****
 1  2  3  4  5  16  17  18  19  20  21  22  23  24  25 0
 3-21G
 ****
 27  28  30  31  32  35  37  42  43  44  45  46  47 0
 3-21G
 ****
 48  49 0
 3-21G
 ****


