%nproc=1
%NoSave
%Mem=1900MB
#P OB98/GEN NMR

erre ene a

0 1
  C       -8.136      24.450      47.982
  O       -8.437      25.614      48.716
  P       -7.714      25.905      50.117
  C      -10.087      26.382      50.994
  O       -8.843      25.738      51.248
  C      -11.240      25.422      51.269
  O      -11.003      24.130      50.652
  C      -11.444      25.101      52.742
  O      -11.863      26.152      53.584
  C      -12.344      23.879      52.658
  O      -13.705      24.249      52.446
  C      -11.775      23.163      51.406
  N      -10.979      21.991      51.763
  C      -11.048      20.918      50.883
  O      -11.729      20.920      49.858
  N      -10.327      19.809      51.235
  C       -9.597      19.657      52.378
  O       -9.011      18.618      52.652
  C       -9.576      20.820      53.277
  C      -10.255      21.918      52.937
  O       -6.953      27.185      50.185
  O       -6.814      24.600      50.344
  H      -13.733      24.833      51.663
  H       -7.312      23.764      50.386
  H      -10.374      19.015      50.618
  H       -8.995      20.736      54.187
  H      -10.255      22.788      53.585
  H      -12.592      22.835      50.752
  H      -12.311      23.285      53.577
  H      -10.484      24.762      53.153
  H      -12.145      25.834      50.816
  H      -10.120      26.689      49.944
  H      -10.163      27.284      51.610
  P      -10.969      26.736      54.778
  C      -12.546      25.934      56.671
  O      -11.260      25.872      56.095
  O      -10.932      28.221      54.923
  O       -9.505      26.218      54.363
  H       -8.841      26.861      54.674
  H      -12.552      25.324      57.579
  H      -13.294      25.537      55.979
  H      -12.796      26.963      56.942
  H       -8.716      24.435      47.083
  H       -8.369      23.587      48.570
  H       -7.095      24.443      47.735

 3  4  5  6  7  8  9  10  11  12  13  23  28  29  30  31  32 0
 6-311+G(2d,p)
 ****
 33  34 0
 6-311+G(2d,p)
 ****
 1  2  14  15  16  17  18  19  20  21  22  24  25  26  27 0
 3-21G
 ****
 35  36  37  38  39  40  41  42  43  44  45 0
 3-21G
 ****


