%nproc=1
%NoSave
%Mem=1900MB
#P OB98/GEN NMR

erre ene a

0 1
  C      255.847     164.965     -31.491
  O      255.368     165.932     -30.573
  P      255.850     165.803     -29.048
  C      257.503     167.806     -29.195
  O      256.318     167.272     -28.611
  C      257.526     169.325     -29.060
  O      256.620     169.919     -30.007
  C      257.083     169.832     -27.697
  O      258.118     169.676     -26.747
  C      256.744     171.282     -28.012
  O      257.912     172.116     -27.926
  C      256.230     171.202     -29.468
  N      254.792     171.404     -29.566
  C      254.379     172.721     -29.809
  O      255.213     173.622     -29.908
  N      253.035     172.983     -29.895
  C      252.182     172.017     -29.743
  N      250.861     172.334     -29.845
  C      252.576     170.622     -29.466
  C      253.884     170.391     -29.384
  O      257.223     164.992     -29.167
  O      254.872     165.136     -28.138
  H      258.268     171.980     -27.024
  H      257.408     164.500     -28.346
  H      251.823     169.856     -29.349
  H      254.260     169.395     -29.180
  H      256.724     171.960     -30.088
  H      256.010     171.691     -27.310
  H      256.180     169.304     -27.366
  H      258.541     169.676     -29.290
  H      250.622     173.300     -30.029
  H      257.531     167.547     -30.257
  H      250.120     171.653     -29.764
  H      258.373     167.358     -28.703
  P      257.703     169.305     -25.246
  C      257.801     166.855     -26.000
  O      258.218     167.803     -25.036
  O      256.119     169.100     -25.377
  O      258.058     170.284     -24.179
  H      255.726     168.964     -24.492
  H      258.342     165.921     -25.831
  H      258.020     167.214     -27.008
  H      256.729     166.665     -25.896
  H      255.450     165.169     -32.463
  H      255.537     163.990     -31.176
  H      256.916     165.005     -31.526

 3  4  5  6  7  8  9  10  11  12  13  21  23  27  28  29  30  32 0
 6-311+G(2d,p)
 ****
 34  35 0
 6-311+G(2d,p)
 ****
 1  2  14  15  16  17  18  19  20  22  24  25  26 0
 3-21G
 ****
 31  33  36  37  38  39  40  41  42  43  44  45  46 0
 3-21G
 ****


