%nproc=1
%NoSave
%Mem=1900MB
#P OB98/GEN NMR

erre ene a

0 1
  C      -20.962    -168.209    -281.873
  O      -20.962    -169.556    -282.286
  H      -20.316    -167.639    -282.549
  H      -20.568    -168.115    -280.859
  H      -21.973    -167.794    -281.921
  P      -21.680    -170.657    -281.358
  C      -20.979    -172.018    -279.302
  O      -20.599    -170.989    -280.207
  C      -20.659    -171.637    -277.855
  O      -19.220    -171.544    -277.679
  C      -21.261    -170.295    -277.420
  O      -21.885    -170.444    -276.140
  C      -20.056    -169.371    -277.316
  O      -20.286    -168.278    -276.434
  C      -18.964    -170.362    -276.899
  N      -17.617    -169.852    -277.120
  C      -16.686    -170.083    -276.101
  O      -17.028    -170.660    -275.068
  N      -15.402    -169.628    -276.260
  C      -15.082    -168.947    -277.315
  N      -13.799    -168.510    -277.408
  C      -16.047    -168.635    -278.395
  C      -17.280    -169.121    -278.238
  O      -22.201    -171.846    -282.089
  O      -22.807    -169.842    -280.570
  H      -20.279    -168.620    -275.510
  H      -23.489    -170.474    -280.228
  H      -15.738    -168.059    -279.253
  H      -18.048    -168.950    -278.983
  H      -19.065    -170.626    -275.836
  H      -19.828    -168.964    -278.311
  H      -22.002    -169.909    -278.118
  H      -20.992    -172.452    -277.202
  H      -13.170    -168.746    -276.647
  H      -20.452    -172.940    -279.578
  H      -13.443    -167.969    -278.183
  H      -22.059    -172.180    -279.396
  P      -23.297    -169.707    -275.949
  C      -24.288    -168.038    -274.232
  O      -23.111    -168.575    -274.822
  O      -24.194    -170.821    -275.224
  O      -23.911    -169.244    -277.231
  H      -24.780    -171.251    -275.875
  H      -24.018    -167.301    -273.505
  H      -24.839    -168.823    -273.757
  H      -24.893    -167.586    -274.990

 6  7  8  9  10  11  12  13  14  15  16  26  30  31  32  33  35 0
 6-311+G(2d,p)
 ****
 37  38 0
 6-311+G(2d,p)
 ****
 1  2  3  4  5  17  18  19  20  21  22  23  24  25 0
 3-21G
 ****
 27  28  29  34  36  39  40  41  42  43  44  45  46 0
 3-21G
 ****


