%nproc=1
%NoSave
%Mem=1900MB
#P OB98/GEN NMR

erre ene a

0 1
  C      -72.650     141.413    -427.153
  O      -73.570     140.345    -427.307
  P      -75.109     140.562    -427.669
  C      -75.274     138.471    -429.200
  O      -75.748     139.131    -428.036
  C      -75.540     136.950    -429.181
  O      -74.657     136.322    -428.230
  C      -76.973     136.681    -428.686
  O      -78.062     136.751    -429.586
  C      -76.872     135.379    -427.887
  O      -77.268     134.237    -428.661
  C      -75.382     135.294    -427.542
  N      -75.645     133.058    -422.982
  C      -75.758     132.492    -424.242
  N      -76.177     131.200    -424.271
  N      -75.501     133.136    -425.354
  C      -75.189     134.438    -425.156
  C      -75.027     135.107    -423.967
  C      -75.273     134.374    -422.745
  O      -75.266     134.862    -421.617
  N      -74.776     136.453    -424.156
  C      -74.818     136.600    -425.472
  N      -75.098     135.412    -426.116
  O      -75.439     141.740    -428.537
  O      -75.743     140.854    -426.213
  H      -78.183     134.390    -428.961
  H      -76.472     141.500    -426.327
  H      -75.929     132.538    -422.161
  H      -74.685     137.533    -425.983
  H      -74.961     134.332    -427.869
  H      -77.533     135.409    -427.010
  H      -76.518     130.729    -423.453
  H      -77.196     137.451    -427.935
  H      -76.431     130.812    -425.174
  H      -75.318     136.500    -430.146
  H      -74.204     138.665    -429.276
  H      -75.744     138.904    -430.085
  P      -79.563     137.161    -429.230
  C      -79.901     138.878    -431.094
  O      -80.294     137.617    -430.572
  O      -79.406     138.533    -428.412
  O      -80.322     136.162    -428.408
  H      -80.210     138.681    -427.856
  H      -80.647     139.225    -431.813
  H      -78.944     138.765    -431.613
  H      -79.804     139.618    -430.294
  H      -71.684     141.020    -426.912
  H      -72.980     142.057    -426.364
  H      -72.592     141.968    -428.066

 3  4  5  6  7  8  9  10  11  12  23  26  30  31 0
 6-311+G(2d,p)
 ****
 33  35  36  37  38 0
 6-311+G(2d,p)
 ****
 1  2  13  14  15  16  17  18  19  20  21  22  24  25 0
 3-21G
 ****
 27  28  29  32  34  39  40  41  42  43  44  45  46  47  48  49 0
 3-21G
 ****


