%nproc=1
%NoSave
%Mem=1900MB
#P OB98/GEN NMR

erre ene a

0 1
  C     -432.559     271.677    -262.986
  O     -433.188     270.486    -263.472
  P     -432.706     269.109    -262.792
  C     -431.000     268.493    -264.671
  O     -431.200     268.804    -263.281
  C     -429.565     268.020    -264.935
  O     -429.261     266.890    -264.098
  C     -429.302     267.595    -266.396
  O     -427.968     267.995    -266.759
  C     -429.311     266.072    -266.312
  O     -428.592     265.480    -267.399
  C     -428.685     265.879    -264.936
  N     -427.541     260.941    -265.233
  C     -426.985     262.028    -265.895
  N     -425.994     261.740    -266.768
  N     -427.365     263.261    -265.704
  C     -428.341     263.391    -264.773
  C     -428.976     262.406    -264.055
  C     -428.581     261.031    -264.312
  O     -429.090     260.023    -263.795
  N     -429.932     262.938    -263.208
  C     -429.884     264.230    -263.424
  N     -428.944     264.556    -264.369
  O     -433.588     268.002    -263.546
  O     -432.918     269.054    -261.316
  H     -428.427     264.553    -267.164
  H     -434.096     267.476    -262.898
  H     -427.226     260.007    -265.434
  H     -430.506     264.970    -262.953
  H     -427.605     266.032    -264.964
  H     -430.341     265.714    -266.352
  H     -425.611     260.823    -266.919
  H     -430.019     267.975    -267.129
  H     -425.528     262.524    -267.217
  H     -428.879     268.832    -264.646
  H     -431.215     269.386    -265.284
  H     -431.711     267.717    -264.957
  P     -427.854     269.186    -267.836
  C     -427.024     267.463    -269.607
  O     -427.935     268.493    -269.272
  O     -426.317     269.651    -267.722
  O     -428.797     270.324    -267.583
  H     -426.226     270.578    -267.971
  H     -426.452     267.131    -268.723
  H     -426.317     267.843    -270.337
  H     -427.560     266.617    -270.006
  H     -432.953     272.526    -263.505
  H     -431.504     271.616    -263.152
  H     -432.750     271.779    -261.938

 3  4  5  6  7  8  9  10  11  12  23  26  30  31  33  0
 6-311+G(2d,p)
 ****
 35  36  37  38 0
 6-311+G(2d,p)
 ****
 1  2  13  14  15  16  17  18  19  20  21  22  24  25  27  28  29 0
 3-21G
 ****
 32  34  39  40  41  42  43  44  45  46  47  48  49 0
 3-21G
 ****


