%nproc=1
%NoSave
%Mem=1900MB
#P OB98/GEN NMR

erre ene a

0 1
  C      -25.079    -116.108     231.830
  O      -25.576    -117.439     231.607
  P      -25.332    -118.133     230.179
  C      -27.839    -118.409     229.506
  O      -26.593    -119.036     229.771
  C      -29.003    -119.402     229.638
  O      -28.824    -120.512     228.710
  C      -29.163    -120.010     231.039
  O      -30.565    -120.236     231.243
  C      -28.435    -121.336     230.905
  O      -28.804    -122.280     231.900
  C      -28.847    -121.730     229.484
  N      -27.996    -122.751     228.872
  C      -28.588    -123.949     228.488
  O      -29.767    -124.234     228.683
  N      -27.757    -124.857     227.881
  C      -26.418    -124.704     227.664
  O      -25.723    -125.568     227.144
  C      -25.841    -123.431     228.117
  C      -26.643    -122.531     228.689
  O      -24.225    -119.239     230.532
  O      -24.827    -117.227     229.103
  H      -29.775    -122.264     231.970
  H      -23.518    -119.221     229.862
  H      -28.172    -125.725     227.584
  H      -24.784    -123.269     227.959
  H      -26.240    -121.578     229.019
  H      -29.885    -122.081     229.487
  H      -27.356    -121.167     230.989
  H      -28.762    -119.374     231.832
  H      -29.924    -118.887     229.338
  H      -27.829    -118.007     228.489
  H      -27.974    -117.575     230.205
  P      -31.488    -118.987     231.660
  C      -31.648    -119.954     234.085
  O      -32.314    -119.422     232.961
  O      -32.588    -119.043     230.492
  O      -30.767    -117.681     231.729
  H      -32.913    -119.943     230.326
  H      -30.716    -119.419     234.288
  H      -31.431    -121.011     233.918
  H      -32.301    -119.862     234.956
  H      -25.324    -115.798     232.824
  H      -25.526    -115.438     231.126
  H      -24.016    -116.099     231.706

 3  4  5  6  7  8  9  10  11  12  13  23  28  29  30  31  32 0
 6-311+G(2d,p)
 ****
 33  34 0
 6-311+G(2d,p)
 ****
 1  2  14  15  16  17  18  19  20  21  22  24  25  26 0
 3-21G
 ****
 27  35  36  37  38  39  40  41  42  43  44  45 0
 3-21G
 ****


