%nproc=1
%NoSave
%Mem=1900MB
#P OB98/GEN NMR

erre ene a

0 1
  C     -284.769      25.816      33.529
  O     -285.911      26.619      33.849
  P     -286.704      27.293      32.627
  C     -288.955      25.962      32.641
  O     -288.266      27.151      32.986
  C     -290.246      25.821      33.458
  O     -289.951      25.180      34.738
  C     -290.953      27.150      33.756
  O     -292.367      26.891      33.693
  C     -290.534      27.448      35.184
  O     -291.440      28.336      35.830
  C     -290.496      26.029      35.768
  N     -289.712      25.950      37.001
  C     -290.292      26.482      38.150
  O     -291.372      27.071      38.146
  N     -289.561      26.354      39.299
  C     -288.298      25.833      39.398
  O     -287.693      25.743      40.454
  C     -287.691      25.393      38.128
  C     -288.418      25.472      37.007
  O     -286.462      26.228      31.463
  O     -286.240      28.681      32.323
  H     -286.464      25.303      31.778
  H     -291.245      28.345      36.794
  H     -289.973      26.705      40.152
  H     -286.672      25.031      38.155
  H     -287.992      25.178      36.054
  H     -291.512      25.678      35.981
  H     -289.538      27.902      35.196
  H     -290.693      27.944      33.047
  H     -290.924      25.153      32.910
  H     -288.318      25.090      32.838
  H     -289.170      25.964      31.563
  P     -293.177      27.425      32.407
  C     -293.249      25.054      31.293
  O     -293.959      26.170      31.788
  O     -291.964      27.639      31.380
  O     -293.973      28.673      32.634
  H     -291.354      26.884      31.348
  H     -293.950      24.229      31.147
  H     -292.480      24.732      31.999
  H     -292.786      25.304      30.334
  H     -284.339      25.432      34.430
  H     -284.045      26.414      33.016
  H     -285.069      25.003      32.902

 3  4  5  6  7  8  9  10  11  12  13  24  28  29  30  31  32 0
 6-311+G(2d,p)
 ****
 33  34 0
 6-311+G(2d,p)
 ****
 1  2  14  15  16  17  18  19  20  21  22  23  25  26  27 0
 3-21G
 ****
 35  36  37  38  39  40  41  42  43  44  45 0
 3-21G
 ****


