%nproc=1
%NoSave
%Mem=1900MB
#P OB98/GEN NMR

erre ene a

0 1
  C       60.244    -185.626    -659.874
  O       59.432    -185.068    -660.914
  P       60.170    -184.009    -661.880
  C       58.954    -181.895    -660.957
  O       60.192    -182.585    -661.132
  C       59.122    -180.651    -660.084
  O       57.902    -179.854    -660.158
  C       59.379    -180.936    -658.593
  O       60.292    -179.946    -658.094
  C       58.029    -180.680    -657.944
  O       58.152    -180.375    -656.560
  C       57.529    -179.517    -658.817
  N       53.838    -176.688    -656.804
  C       55.211    -176.510    -656.771
  N       55.666    -175.437    -656.080
  N       56.065    -177.308    -657.362
  C       55.467    -178.329    -658.029
  C       54.114    -178.612    -658.148
  C       53.195    -177.735    -657.451
  O       51.976    -177.875    -657.400
  N       53.901    -179.723    -658.913
  C       55.122    -180.131    -659.258
  N       56.094    -179.312    -658.741
  O       59.105    -183.803    -663.070
  O       61.481    -184.475    -662.412
  H       58.874    -179.720    -656.471
  H       59.521    -184.011    -663.932
  H       53.239    -176.055    -656.318
  H       55.340    -180.997    -659.846
  H       58.016    -178.578    -658.538
  H       57.399    -181.572    -658.061
  H       55.063    -174.736    -655.666
  H       59.761    -181.932    -658.396
  H       56.651    -175.256    -656.086
  H       59.934    -180.040    -660.506
  H       58.230    -182.572    -660.500
  H       58.572    -181.622    -661.950
  P       61.846    -180.367    -658.050
  C       62.036    -180.825    -655.491
  O       61.987    -181.366    -656.789
  O       62.577    -179.034    -657.541
  O       62.390    -180.861    -659.350
  H       63.498    -179.009    -657.860
  H       61.781    -179.764    -655.459
  H       63.052    -180.951    -655.088
  H       61.332    -181.374    -654.848
  H       59.661    -186.312    -659.295
  H       60.603    -184.841    -659.242
  H       61.075    -186.142    -660.308

 3  4  5  6  7  8  9  10  11  12  23  26  30  31  33  0
 6-311+G(2d,p)
 ****
 35  36  37  38 0
 6-311+G(2d,p)
 ****
 1  2  13  14  15  16  17  18  19  20  21  22  24  25  27  28  29 0
 3-21G
 ****
 32  34  39  40  41  42  43  44  45  46  47  48  49 0
 3-21G
 ****


