%nproc=1
%NoSave
%Mem=1900MB
#P OB98/GEN NMR

erre ene a

0 1
  C     -415.216    -358.678     283.847
  O     -415.793    -359.511     284.859
  P     -414.789    -360.275     285.855
  C     -415.298    -362.663     284.953
  O     -415.319    -361.776     286.066
  C     -415.312    -364.128     285.404
  O     -414.057    -364.477     286.049
  C     -416.427    -364.451     286.409
  O     -416.816    -365.823     286.234
  C     -415.720    -364.322     287.744
  O     -416.431    -364.984     288.786
  C     -414.355    -364.914     287.396
  N     -411.600    -366.312     291.379
  C     -412.609    -366.983     290.722
  N     -412.905    -368.225     291.162
  N     -413.277    -366.486     289.706
  C     -412.837    -365.244     289.348
  C     -411.858    -364.481     289.925
  C     -411.146    -365.036     291.070
  O     -410.253    -364.487     291.700
  N     -411.727    -363.266     289.304
  C     -412.636    -363.303     288.341
  N     -413.315    -364.494     288.310
  O     -415.081    -359.571     287.268
  O     -413.345    -360.148     285.475
  H     -415.928    -364.854     289.621
  H     -414.334    -359.004     287.509
  H     -411.129    -366.751     292.165
  H     -412.845    -362.489     287.654
  H     -414.362    -366.019     287.405
  H     -415.627    -363.258     288.017
  H     -412.400    -368.692     291.902
  H     -417.313    -363.819     286.334
  H     -413.612    -368.755     290.669
  H     -415.422    -364.764     284.517
  H     -414.413    -362.477     284.342
  H     -416.159    -362.434     284.314
  P     -418.236    -366.089     285.535
  C     -419.236    -367.025     287.753
  O     -418.940    -367.256     286.387
  O     -417.853    -366.813     284.161
  O     -419.060    -364.866     285.317
  H     -418.559    -366.675     283.496
  H     -420.305    -366.830     287.849
  H     -418.679    -366.165     288.151
  H     -418.981    -367.919     288.324
  H     -415.995    -358.236     283.262
  H     -414.587    -359.269     283.215
  H     -414.635    -357.907     284.308

 3  4  5  6  7  8  9  10  11  12  23  26  30  31 0
 6-311+G(2d,p)
 ****
 33  35  36  37  38 0
 6-311+G(2d,p)
 ****
 1  2  13  14  15  16  17  18  19  20  21  22  24  25 0
 3-21G
 ****
 27  28  29  32  34  39  40  41  42  43  44  45  46  47  48  49 0
 3-21G
 ****


