%nproc=1
%NoSave
%Mem=1900MB
#P OB98/GEN NMR

erre ene a

0 1
  C     -398.268    -130.031    -106.898
  O     -397.264    -129.099    -107.285
  P     -395.783    -129.272    -106.699
  C     -393.408    -128.354    -107.423
  O     -394.805    -128.189    -107.353
  C     -392.822    -127.326    -108.415
  O     -393.225    -127.653    -109.770
  C     -393.293    -125.897    -108.141
  O     -392.474    -125.243    -107.189
  C     -393.221    -125.275    -109.528
  O     -391.861    -124.951    -109.863
  C     -393.729    -126.441    -110.410
  N     -395.189    -126.594    -110.597
  C     -395.942    -125.508    -111.044
  O     -395.479    -124.403    -111.309
  N     -397.289    -125.737    -111.208
  C     -397.919    -126.948    -111.137
  O     -399.114    -127.106    -111.349
  C     -397.051    -128.088    -110.798
  C     -395.759    -127.859    -110.540
  O     -395.289    -130.662    -107.316
  O     -395.712    -129.267    -105.197
  H     -391.347    -125.783    -109.826
  H     -395.143    -131.316    -106.608
  H     -397.859    -124.941    -111.468
  H     -397.503    -129.073    -110.780
  H     -395.106    -128.700    -110.293
  H     -393.284    -126.398    -111.406
  H     -393.777    -124.339    -109.567
  H     -394.344    -125.893    -107.824
  H     -391.729    -127.376    -108.357
  H     -393.150    -129.365    -107.745
  H     -392.968    -128.216    -106.428
  P     -392.943    -125.166    -105.655
  C     -391.714    -125.948    -103.545
  O     -391.592    -125.286    -104.783
  O     -394.050    -126.084    -105.256
  O     -393.345    -123.623    -105.456
  H     -394.313    -123.493    -105.572
  H     -390.703    -126.104    -103.129
  H     -392.197    -126.927    -103.668
  H     -392.293    -125.336    -102.850
  H     -399.193    -129.777    -107.373
  H     -398.393    -130.000    -105.836
  H     -397.974    -131.016    -107.194

 3  4  5  6  7  8  9  10  11  12  13  23  28  29  30  31  32 0
 6-311+G(2d,p)
 ****
 33  34 0
 6-311+G(2d,p)
 ****
 1  2  14  15  16  17  18  19  20  21  22  24  25  26  27 0
 3-21G
 ****
 35  36  37  38  39  40  41  42  43  44  45 0
 3-21G
 ****


