%nproc=1
%NoSave
%Mem=1900MB
#P OB98/GEN NMR

erre ene a

0 1
  C      105.371     209.390     117.574
  O      105.224     207.981     117.522
  P      105.169     207.121     118.875
  C      106.577     207.175     121.034
  O      106.557     207.416     119.630
  C      107.988     206.805     121.502
  O      108.437     205.597     120.855
  C      109.044     207.860     121.183
  O      108.958     208.943     122.096
  C      110.323     207.037     121.293
  O      110.746     206.916     122.660
  C      109.879     205.666     120.738
  N      110.319     205.454     119.363
  C      111.523     204.751     119.208
  O      112.157     204.388     120.200
  N      112.001     204.532     117.936
  C      111.339     204.987     116.914
  N      111.869     204.743     115.680
  C      110.085     205.755     117.039
  C      109.636     205.951     118.275
  O      104.834     205.675     118.691
  O      104.098     207.913     119.766
  H      111.515     206.306     122.656
  H      103.174     207.766     119.441
  H      109.579     206.125     116.155
  H      108.726     206.508     118.454
  H      110.275     204.853     121.358
  H      111.150     207.491     120.735
  H      108.920     208.208     120.151
  H      107.955     206.623     122.584
  H      112.745     204.238     115.646
  H      105.899     206.343     121.251
  H      111.458     205.084     114.825
  H      106.217     208.062     121.566
  P      109.084     210.445     121.561
  C      110.868     211.826     120.325
  O      110.610     210.686     121.123
  O      108.502     211.495     122.452
  O      108.312     210.410     120.151
  H      107.742     211.201     120.083
  H      111.935     212.061     120.385
  H      110.290     212.687     120.680
  H      110.601     211.611     119.289
  H      105.387     209.784     116.579
  H      106.287     209.635     118.069
  H      104.550     209.815     118.113

 3  4  5  6  7  8  9  10  11  12  13  23  27  28  29  30  32 0
 6-311+G(2d,p)
 ****
 34  35 0
 6-311+G(2d,p)
 ****
 1  2  14  15  16  17  18  19  20  21  22  24  25  26 0
 3-21G
 ****
 31  33  36  37  38  39  40  41  42  43  44  45  46 0
 3-21G
 ****


