%nproc=1
%NoSave
%Mem=1900MB
#P OB98/GEN NMR

erre ene a

0 1
  C       51.820     -22.469     -32.671
  O       53.162     -22.018     -32.725
  P       53.480     -20.658     -33.510
  C       54.247     -21.646     -35.791
  O       53.250     -20.933     -35.074
  C       54.971     -20.714     -36.764
  O       56.011     -21.462     -37.465
  C       54.059     -20.089     -37.832
  O       54.561     -18.776     -38.116
  C       54.290     -20.995     -39.028
  O       53.916     -20.396     -40.260
  C       55.791     -21.264     -38.877
  N       56.246     -22.412     -39.660
  C       57.055     -22.152     -40.763
  O       57.404     -21.024     -41.111
  N       57.410     -23.243     -41.510
  C       56.976     -24.522     -41.323
  O       57.238     -25.437     -42.097
  C       56.123     -24.736     -40.144
  C       55.801     -23.690     -39.379
  O       55.069     -20.524     -33.377
  O       52.772     -19.455     -32.984
  H       54.592     -19.730     -40.480
  H       55.299     -19.889     -32.672
  H       58.006     -23.076     -42.307
  H       55.777     -25.745     -39.953
  H       55.157     -23.816     -38.514
  H       56.365     -20.374     -39.168
  H       53.705     -21.913     -38.908
  H       53.005     -20.041     -37.533
  H       55.473     -19.926     -36.186
  H       53.776     -22.455     -36.353
  H       54.955     -22.095     -35.086
  P       53.534     -17.694     -38.714
  C       54.962     -17.608     -40.903
  O       53.688     -17.742     -40.307
  O       54.264     -16.329     -38.297
  O       52.147     -17.818     -38.172
  H       55.225     -16.357     -38.451
  H       55.744     -18.059     -40.286
  H       55.184     -16.549     -41.049
  H       54.951     -18.105     -41.877
  H       51.773     -23.383     -32.116
  H       51.460     -22.636     -33.665
  H       51.214     -21.729     -32.192

 3  4  5  6  7  8  9  10  11  12  13  23  28  29  30  31  32 0
 6-311+G(2d,p)
 ****
 33  34 0
 6-311+G(2d,p)
 ****
 1  2  14  15  16  17  18  19  20  21  22  24  25  26 0
 3-21G
 ****
 27  35  36  37  38  39  40  41  42  43  44  45 0
 3-21G
 ****


