%nproc=1
%NoSave
%Mem=1900MB
#P OB98/GEN NMR

erre ene a

0 1
  C     -241.118     428.339    -118.182
  O     -239.922     427.684    -118.632
  P     -238.527     428.450    -118.447
  C     -236.897     428.920    -116.471
  O     -237.949     428.120    -116.988
  C     -236.308     428.290    -115.207
  O     -237.269     428.245    -114.130
  C     -235.853     426.848    -115.398
  O     -234.562     426.786    -115.987
  C     -235.805     426.363    -113.959
  O     -234.582     426.814    -113.333
  C     -237.010     427.069    -113.333
  N     -240.796     425.294    -110.375
  C     -239.719     426.061    -110.099
  N     -238.748     426.480    -110.934
  C     -238.971     426.031    -112.180
  C     -240.020     425.235    -112.613
  C     -240.966     424.858    -111.647
  N     -242.063     424.079    -111.936
  N     -239.909     424.967    -113.961
  C     -238.820     425.603    -114.339
  N     -238.211     426.252    -113.298
  O     -238.972     429.984    -118.324
  O     -237.571     428.246    -119.573
  H     -234.617     427.791    -113.308
  H     -238.298     430.557    -118.731
  H     -239.631     426.389    -109.063
  H     -238.433     425.625    -115.352
  H     -236.815     427.401    -112.306
  H     -235.813     425.272    -113.882
  H     -236.599     426.272    -115.965
  H     -235.458     428.905    -114.884
  H     -237.267     429.925    -116.254
  H     -242.713     423.871    -111.191
  H     -242.208     423.773    -112.886
  H     -236.127     429.042    -117.243
  P     -234.485     426.836    -117.591
  C     -234.204     428.754    -119.325
  O     -234.243     428.381    -117.961
  O     -235.997     426.561    -118.032
  O     -233.535     425.862    -118.192
  H     -236.016     426.111    -118.901
  H     -234.339     429.834    -119.396
  H     -234.998     428.260    -119.894
  H     -233.228     428.494    -119.749
  H     -241.962     427.709    -118.371
  H     -241.238     429.263    -118.708
  H     -241.045     428.532    -117.132

 3  4  5  6  7  8  9  10  11  12  22  25  29  30  31  32 0
 6-311+G(2d,p)
 ****
 33  36  37 0
 6-311+G(2d,p)
 ****
 1  2  13  14  15  16  17  18  19  20  21  23  24  26 0
 3-21G
 ****
 27  28  34  35  38  39  40  41  42  43  44  45  46  47  48 0
 3-21G
 ****


