%nproc=1
%NoSave
%Mem=1900MB
#P OB98/GEN NMR

erre ene a

0 1
  C      114.755      19.045       0.359
  O      114.870      17.666       0.006
  P      116.269      17.112      -0.545
  C      115.724      17.245      -3.062
  O      116.535      17.729      -2.003
  C      115.865      18.127      -4.313
  O      115.023      17.608      -5.377
  C      115.466      19.588      -4.064
  O      116.453      20.521      -4.501
  C      114.105      19.701      -4.728
  O      113.774      21.033      -5.089
  C      114.199      18.681      -5.868
  N      112.877      18.214      -6.296
  C      112.722      17.932      -7.646
  O      113.605      18.129      -8.481
  N      111.490      17.471      -8.027
  C      110.400      17.344      -7.217
  O      109.305      16.971      -7.615
  C      110.606      17.718      -5.809
  C      111.815      18.128      -5.421
  O      116.472      15.639      -0.436
  O      117.342      17.898       0.357
  H      112.857      21.040      -5.442
  H      118.070      17.280       0.563
  H      111.367      17.245      -9.002
  H      109.759      17.651      -5.142
  H      111.991      18.422      -4.395
  H      114.688      19.116      -6.745
  H      113.344      19.361      -4.015
  H      115.363      19.796      -2.993
  H      116.909      18.066      -4.637
  H      114.680      17.243      -2.748
  H      115.983      16.201      -3.270
  P      117.411      21.351      -3.526
  C      116.008      23.528      -3.451
  O      116.520      22.421      -2.737
  O      118.651      21.901      -4.146
  O      117.788      20.280      -2.394
  H      118.728      20.383      -2.156
  H      115.760      24.319      -2.738
  H      115.096      23.232      -3.978
  H      116.738      23.914      -4.167
  H      113.762      19.243       0.705
  H      114.961      19.651      -0.498
  H      115.455      19.274       1.135

 3  4  5  6  7  8  9  10  11  12  13  23  28  29  30  31  32 0
 6-311+G(2d,p)
 ****
 33  34 0
 6-311+G(2d,p)
 ****
 1  2  14  15  16  17  18  19  20  21  22  24  25  26  27 0
 3-21G
 ****
 35  36  37  38  39  40  41  42  43  44  45 0
 3-21G
 ****


