%nproc=1
%NoSave
%Mem=1900MB
#P OB98/GEN NMR

erre ene a

0 1
  C     -340.968      15.658     518.882
  O     -340.620      15.648     520.277
  P     -339.697      14.513     520.928
  C     -339.720      11.952     521.286
  O     -340.425      13.089     520.787
  C     -340.623      11.068     522.163
  O     -340.898      11.713     523.420
  C     -341.986      10.754     521.556
  O     -341.884       9.770     520.541
  C     -342.760      10.314     522.798
  O     -342.493       8.938     523.115
  C     -342.186      11.247     523.877
  N     -343.074      12.361     524.194
  C     -343.553      12.421     525.502
  O     -343.269      11.542     526.316
  N     -344.367      13.479     525.861
  C     -344.719      14.342     524.967
  N     -345.517      15.374     525.375
  C     -344.312      14.266     523.548
  C     -343.492      13.255     523.234
  O     -339.247      14.827     522.325
  O     -338.433      14.385     519.954
  H     -342.810       8.802     524.037
  H     -337.651      14.124     520.476
  H     -344.653      14.995     522.830
  H     -343.130      13.133     522.223
  H     -341.983      10.684     524.810
  H     -343.838      10.416     522.674
  H     -342.437      11.675     521.156
  H     -340.074      10.136     522.367
  H     -345.774      15.402     526.353
  H     -338.876      12.307     521.884
  H     -345.853      16.099     524.763
  H     -339.331      11.381     520.441
  P     -342.074      10.189     519.005
  C     -343.729      11.606     517.639
  O     -343.437      11.032     518.903
  O     -341.936       9.082     518.006
  O     -340.953      11.320     518.773
  H     -340.644      11.279     517.846
  H     -344.806      11.796     517.582
  H     -343.438      10.940     516.819
  H     -343.197      12.562     517.540
  H     -341.588      16.505     518.675
  H     -341.498      14.760     518.640
  H     -340.077      15.716     518.293

 3  4  5  6  7  8  9  10  11  12  13  23  27  28  29  30  32 0
 6-311+G(2d,p)
 ****
 34  35 0
 6-311+G(2d,p)
 ****
 1  2  14  15  16  17  18  19  20  21  22  24  25  26 0
 3-21G
 ****
 31  33  36  37  38  39  40  41  42  43  44  45  46 0
 3-21G
 ****


