%nproc=1
%NoSave
%Mem=1900MB
#P OB98/GEN NMR

erre ene a

0 1
  C       35.399    -115.973    -261.487
  O       35.996    -117.245    -261.339
  P       37.556    -117.398    -261.019
  C       38.402    -117.952    -263.392
  O       38.347    -116.974    -262.357
  C       39.781    -118.623    -263.415
  O       39.727    -119.773    -264.319
  C       40.897    -117.683    -263.912
  O       42.026    -117.590    -263.038
  C       41.190    -118.215    -265.307
  O       42.466    -117.851    -265.805
  C       40.918    -119.714    -265.129
  N       40.761    -120.411    -266.405
  C       41.547    -121.541    -266.614
  O       42.351    -121.988    -265.799
  N       41.438    -122.129    -267.843
  C       40.725    -121.649    -268.903
  O       40.746    -122.174    -270.009
  C       39.939    -120.427    -268.632
  C       39.972    -119.885    -267.412
  O       37.969    -118.716    -260.457
  O       37.854    -116.155    -260.054
  H       42.393    -116.961    -266.194
  H       37.667    -115.279    -260.439
  H       42.003    -122.945    -268.008
  H       39.374    -120.018    -269.455
  H       39.407    -118.986    -267.184
  H       41.720    -120.204    -264.566
  H       40.447    -117.789    -265.990
  H       40.539    -116.647    -263.988
  H       39.992    -118.988    -262.406
  H       38.227    -117.459    -264.348
  H       37.604    -118.689    -263.251
  P       43.365    -116.766    -263.348
  C       44.734    -118.613    -264.562
  O       44.043    -117.385    -264.661
  O       44.286    -116.590    -262.184
  O       42.819    -115.345    -263.854
  H       43.468    -114.650    -263.639
  H       45.516    -118.636    -265.326
  H       44.039    -119.435    -264.755
  H       45.198    -118.740    -263.582
  H       34.356    -116.091    -261.696
  H       35.868    -115.451    -262.294
  H       35.520    -115.415    -260.582

 3  4  5  6  7  8  9  10  11  12  13  23  28  29  30  31  32 0
 6-311+G(2d,p)
 ****
 33  34 0
 6-311+G(2d,p)
 ****
 1  2  14  15  16  17  18  19  20  21  22  24  25  26  27 0
 3-21G
 ****
 35  36  37  38  39  40  41  42  43  44  45 0
 3-21G
 ****


