%nproc=1
%NoSave
%Mem=1900MB
#P OB98/GEN NMR

erre ene a

0 1
  C     -767.381    -899.320     218.039
  O     -766.198    -899.130     217.290
  H     -767.165    -900.000     218.867
  H     -768.147    -899.770     217.403
  H     -767.749    -898.370     218.456
  P     -766.090    -897.860     216.324
  C     -767.252    -896.990     214.189
  O     -767.256    -897.980     215.220
  C     -767.261    -897.640     212.800
  O     -768.402    -898.520     212.660
  C     -767.343    -896.610     211.670
  O     -766.100    -896.100     211.259
  C     -767.999    -897.420     210.554
  O     -767.021    -898.110     209.762
  C     -768.879    -898.420     211.318
  N     -773.178    -897.960     208.585
  C     -771.897    -898.190     208.130
  N     -771.730    -898.270     206.790
  N     -770.878    -898.320     208.945
  C     -771.168    -898.110     210.237
  C     -772.407    -897.850     210.808
  C     -773.558    -897.810     209.919
  O     -774.721    -897.620     210.265
  N     -772.313    -897.670     212.170
  C     -771.015    -897.730     212.413
  N     -770.291    -898.070     211.281
  O     -764.769    -898.170     215.447
  O     -765.976    -896.530     217.011
  H     -766.529    -898.720     210.363
  H     -764.336    -897.330     215.214
  H     -773.940    -897.910     207.928
  H     -770.559    -897.580     213.377
  H     -768.802    -899.430     210.878
  H     -768.548    -896.770     209.869
  H     -772.477    -898.090     206.131
  H     -768.019    -895.790     211.937
  H     -770.782    -898.230     206.421
  H     -766.356    -898.280     212.690
  H     -766.359    -896.400     214.328
  H     -768.116    -896.330     214.305
  P     -766.023    -894.800     210.303
  C     -766.961    -894.150     207.925
  O     -766.802    -895.140     208.943
  O     -764.488    -894.770     209.846
  O     -766.454    -893.510     210.927
  H     -763.984    -894.140     210.381
  H     -767.504    -894.568     207.103
  H     -765.998    -893.826     207.589
  H     -767.500    -893.315     208.321

 6  7  8  9  10  11  12  13  14  15  26  29  33  34 0
 6-311+G(2d,p)
 ****
 36  38  39  40  41 0
 6-311+G(2d,p)
 ****
 1  2  3  4  5  16  17  18  19  20  21  22  23  24  25 0
 3-21G
 ****
 27  28  30  31  32  35  37  42  43  44  45  46  47 0
 3-21G
 ****
 48  49 0
 3-21G
 ****


