%nproc=1
%NoSave
%Mem=1900MB
#P OB98/GEN NMR

erre ene a

0 1
  C     -399.642    -107.779     157.337
  O     -400.124    -106.495     156.996
  H     -399.655    -107.912     158.422
  H     -400.290    -108.533     156.883
  H     -398.625    -107.914     156.957
  P     -399.330    -105.241     157.601
  C     -399.903    -103.408     155.859
  O     -398.920    -104.304     156.361
  C     -400.032    -103.570     154.346
  O     -400.431    -104.935     154.066
  C     -401.052    -102.627     153.684
  O     -400.416    -101.834     152.679
  C     -402.043    -103.560     153.003
  O     -402.457    -103.102     151.718
  C     -401.284    -104.879     152.915
  N     -404.622    -107.424     150.027
  C     -403.602    -106.602     149.696
  N     -402.681    -106.040     150.508
  C     -402.874    -106.426     151.783
  C     -403.855    -107.277     152.267
  C     -404.770    -107.776     151.326
  N     -405.842    -108.569     151.668
  N     -403.735    -107.431     153.636
  C     -402.732    -106.651     153.979
  N     -402.193    -106.010     152.893
  O     -397.936    -105.878     158.067
  O     -400.019    -104.537     158.722
  H     -403.207    -103.664     151.448
  H     -397.727    -105.583     158.973
  H     -403.516    -106.354     148.642
  H     -402.384    -106.477     154.988
  H     -400.652    -104.931     152.019
  H     -402.933    -103.655     153.639
  H     -401.556    -101.977     154.408
  H     -399.038    -103.425     153.899
  H     -399.606    -102.377     156.080
  H     -406.515    -108.783     150.951
  H     -406.023    -108.743     152.645
  H     -400.857    -103.612     156.353
  P     -399.720    -100.468     153.169
  C     -397.327    -100.835     152.214
  O     -398.157    -100.770     153.367
  O     -400.259    -100.316     154.672
  O     -400.057     -99.283     152.332
  H     -400.269     -99.374     154.927
  H     -396.320    -101.042     152.511
  H     -397.361     -99.899     151.697
  H     -397.676    -101.613     151.567

 6  7  8  9  10  11  12  13  14  15  25  28  32  33  34  35 0
 6-311+G(2d,p)
 ****
 36  39  40 0
 6-311+G(2d,p)
 ****
 1  2  3  4  5  16  17  18  19  20  21  22  23  24 0
 3-21G
 ****
 26  27  29  30  31  37  38  41  42  43  44  45  46  47  48 0
 3-21G
 ****


