%nproc=1
%NoSave
%Mem=1900MB
#P OB98/GEN NMR

erre ene a

0 1
  C     -468.880     360.564      66.501
  O     -469.553     359.964      67.616
  P     -469.938     358.412      67.471
  C     -469.751     357.098      69.707
  O     -470.555     357.918      68.863
  C     -470.574     356.580      70.881
  O     -470.900     357.631      71.820
  C     -471.922     355.994      70.463
  O     -471.761     354.715      69.876
  C     -472.661     355.986      71.803
  O     -472.255     354.868      72.596
  C     -472.161     357.293      72.446
  N     -476.909     358.946      73.417
  C     -476.281     357.775      73.695
  N     -475.016     357.413      73.399
  C     -474.370     358.403      72.760
  C     -474.875     359.648      72.416
  C     -476.210     359.910      72.768
  N     -476.853     361.090      72.470
  N     -473.920     360.402      71.767
  C     -472.860     359.616      71.704
  N     -473.083     358.402      72.297
  O     -468.513     357.682      67.400
  O     -470.772     358.112      66.268
  H     -472.510     354.055      72.119
  H     -468.348     357.357      66.496
  H     -476.880     357.038      74.217
  H     -471.917     359.877      71.230
  H     -471.972     357.176      73.520
  H     -473.746     355.937      71.686
  H     -472.427     356.670      69.760
  H     -469.990     355.814      71.403
  H     -468.893     357.668      70.083
  H     -477.835     361.162      72.694
  H     -476.373     361.784      71.914
  H     -469.342     356.274      69.114
  P     -472.157     354.548      68.330
  C     -470.613     352.502      68.312
  O     -471.914     352.989      68.041
  O     -470.921     355.243      67.599
  O     -473.507     355.072      67.963
  H     -470.065     354.955      67.982
  H     -470.592     351.425      68.103
  H     -470.356     352.661      69.359
  H     -469.886     352.995      67.659
  H     -468.679     361.592      66.717
  H     -469.500     360.497      65.632
  H     -467.959     360.050      66.322

 3  4  5  6  7  8  9  10  11  12  22  25  29  30  31  32 0
 6-311+G(2d,p)
 ****
 33  36  37 0
 6-311+G(2d,p)
 ****
 1  2  13  14  15  16  17  18  19  20  21  23  24  26 0
 3-21G
 ****
 27  28  34  35  38  39  40  41  42  43  44  45  46  47  48 0
 3-21G
 ****


