%nproc=1
%NoSave
%Mem=1900MB
#P OB98/GEN NMR

erre ene a

0 1
  C     -175.037    -144.154     411.275
  O     -175.479    -145.490     411.155
  H     -175.073    -143.864     412.329
  H     -175.692    -143.491     410.704
  H     -174.008    -144.060     410.915
  P     -175.508    -146.114     409.677
  C     -177.753    -147.385     409.967
  O     -176.348    -147.484     409.787
  C     -178.226    -148.389     411.022
  O     -178.058    -149.740     410.499
  C     -177.453    -148.309     412.347
  O     -178.363    -148.536     413.427
  C     -176.495    -149.481     412.257
  O     -176.054    -149.923     413.541
  C     -177.353    -150.492     411.505
  N     -176.622    -155.473     411.464
  C     -177.548    -154.709     412.142
  N     -178.417    -155.371     412.942
  N     -177.621    -153.405     412.050
  C     -176.708    -152.880     411.199
  C     -175.731    -153.523     410.473
  C     -175.649    -154.964     410.603
  O     -174.837    -155.696     410.042
  N     -174.981    -152.630     409.752
  C     -175.506    -151.449     410.035
  N     -176.555    -151.549     410.909
  O     -174.003    -146.617     409.454
  O     -175.959    -145.189     408.597
  H     -175.541    -149.195     413.949
  H     -173.764    -146.578     408.508
  H     -176.605    -156.472     411.580
  H     -175.162    -150.498     409.647
  H     -178.090    -150.979     412.150
  H     -175.607    -149.204     411.670
  H     -178.442    -156.371     413.037
  H     -176.935    -147.357     412.497
  H     -179.114    -154.828     413.441
  H     -179.301    -148.247     411.182
  H     -178.251    -147.597     409.013
  H     -178.005    -146.370     410.286
  P     -178.444    -147.419     414.578
  C     -177.302    -148.763     416.489
  O     -178.493    -148.150     416.007
  O     -179.931    -146.835     414.408
  O     -177.420    -146.337     414.443
  H     -179.887    -145.941     414.031
  H     -177.490    -149.205     417.445
  H     -176.533    -148.024     416.582
  H     -176.987    -149.520     415.802

 6  7  8  9  10  11  12  13  14  15  26  29  33  34 0
 6-311+G(2d,p)
 ****
 36  38  39  40  41 0
 6-311+G(2d,p)
 ****
 1  2  3  4  5  16  17  18  19  20  21  22  23  24  25 0
 3-21G
 ****
 27  28  30  31  32  35  37  42  43  44  45  46  47 0
 3-21G
 ****
 48  49 0
 3-21G
 ****


