%nproc=1
%NoSave
%Mem=1900MB
#P OB98/GEN NMR

erre ene a

0 1
  C     -678.708    -322.773    -175.818
  O     -679.369    -322.171    -174.701
  P     -678.458    -321.883    -173.410
  C     -680.585    -321.756    -171.926
  O     -679.369    -321.135    -172.324
  C     -681.504    -320.748    -171.235
  O     -680.902    -320.166    -170.062
  C     -681.897    -319.577    -172.124
  O     -682.934    -319.967    -173.007
  C     -682.342    -318.542    -171.096
  O     -683.712    -318.748    -170.699
  C     -681.395    -318.808    -169.916
  N     -679.905    -314.205    -168.403
  C     -681.176    -314.740    -168.492
  N     -682.189    -313.947    -168.096
  N     -681.425    -315.945    -168.923
  C     -680.314    -316.633    -169.284
  C     -679.002    -316.219    -169.221
  C     -678.739    -314.877    -168.743
  O     -677.633    -314.366    -168.629
  N     -678.141    -317.213    -169.615
  C     -678.942    -318.176    -170.041
  N     -680.268    -317.899    -169.800
  O     -677.446    -320.751    -173.921
  O     -677.731    -323.086    -172.916
  H     -683.859    -319.702    -170.553
  H     -676.547    -321.121    -173.998
  H     -679.771    -313.264    -168.073
  H     -678.617    -319.098    -170.499
  H     -681.924    -318.763    -168.958
  H     -682.284    -317.524    -171.496
  H     -682.070    -313.004    -167.749
  H     -681.020    -319.211    -172.673
  H     -683.129    -314.320    -168.143
  H     -682.405    -321.290    -170.915
  H     -680.376    -322.586    -171.252
  H     -681.066    -322.181    -172.813
  P     -682.671    -319.832    -174.582
  C     -684.833    -319.383    -175.939
  O     -683.984    -320.339    -175.337
  O     -681.591    -320.978    -174.868
  O     -682.160    -318.494    -175.013
  H     -680.886    -320.630    -175.449
  H     -685.331    -319.845    -176.798
  H     -684.283    -318.503    -176.281
  H     -685.597    -319.069    -175.217
  H     -679.410    -322.916    -176.613
  H     -678.303    -323.719    -175.525
  H     -677.917    -322.134    -176.151

 3  4  5  6  7  8  9  10  11  12  23  26  30  31 0
 6-311+G(2d,p)
 ****
 33  35  36  37  38 0
 6-311+G(2d,p)
 ****
 1  2  13  14  15  16  17  18  19  20  21  22  24  25 0
 3-21G
 ****
 27  28  29  32  34  39  40  41  42  43  44  45  46  47  48  49 0
 3-21G
 ****


