%nproc=1
%NoSave
%Mem=1900MB
#P OB98/GEN NMR

erre ene a

0 1
  C     -111.386      83.872    -297.307
  O     -112.599      84.460    -297.825
  P     -113.966      83.612    -297.769
  C     -115.006      83.237    -295.405
  O     -114.871      84.091    -296.533
  C     -115.383      84.031    -294.144
  O     -114.178      84.416    -293.414
  C     -116.173      85.324    -294.418
  O     -117.061      85.518    -293.305
  C     -115.081      86.385    -294.405
  O     -115.580      87.698    -294.194
  C     -114.203      85.854    -293.260
  N     -112.845      86.398    -293.246
  C     -112.496      87.247    -292.198
  O     -113.264      87.626    -291.324
  N     -111.196      87.700    -292.206
  C     -110.250      87.423    -293.161
  O     -109.114      87.879    -293.116
  C     -110.683      86.544    -294.250
  C     -111.934      86.080    -294.248
  O     -113.445      82.176    -297.274
  O     -114.694      83.475    -299.071
  H     -114.805      88.287    -294.121
  H     -113.850      81.474    -297.819
  H     -110.920      88.303    -291.451
  H     -109.962      86.293    -295.022
  H     -112.275      85.418    -295.043
  H     -114.686      86.059    -292.305
  H     -114.558      86.376    -295.365
  H     -116.736      85.296    -295.356
  H     -115.953      83.368    -293.479
  H     -114.055      82.718    -295.224
  H     -115.773      82.485    -295.617
  P     -118.491      84.771    -293.330
  C     -117.941      82.873    -291.603
  O     -118.665      84.050    -291.911
  O     -118.153      83.547    -294.322
  O     -119.625      85.616    -293.803
  H     -117.305      83.118    -294.114
  H     -116.904      82.943    -291.959
  H     -118.427      82.005    -292.057
  H     -117.928      82.735    -290.522
  H     -110.578      84.564    -297.421
  H     -111.166      82.975    -297.846
  H     -111.516      83.642    -296.270

 3  4  5  6  7  8  9  10  11  12  13  23  28  29  30  31  32 0
 6-311+G(2d,p)
 ****
 33  34 0
 6-311+G(2d,p)
 ****
 1  2  14  15  16  17  18  19  20  21  22  24  25  26 0
 3-21G
 ****
 27  35  36  37  38  39  40  41  42  43  44  45 0
 3-21G
 ****


