%nproc=1
%NoSave
%Mem=1900MB
#P OB98/GEN NMR

erre ene a

0 1
  C      218.649    -273.764     265.765
  O      218.841    -272.370     265.510
  P      220.179    -271.973     264.717
  C      220.853    -271.528     262.250
  O      219.833    -271.934     263.149
  C      220.287    -271.335     260.841
  O      219.620    -272.515     260.353
  C      219.265    -270.211     260.747
  O      219.927    -268.958     260.685
  C      218.527    -270.566     259.463
  O      219.233    -270.072     258.302
  C      218.535    -272.103     259.481
  N      213.680    -272.985     258.321
  C      214.611    -272.184     257.684
  N      214.197    -271.554     256.564
  N      215.839    -272.029     258.106
  C      216.114    -272.721     259.236
  C      215.286    -273.564     259.940
  C      213.930    -273.729     259.464
  O      213.072    -274.437     259.980
  N      215.940    -274.140     261.002
  C      217.119    -273.544     261.007
  N      217.298    -272.725     259.922
  O      221.102    -273.270     264.879
  O      220.847    -270.751     265.254
  H      220.123    -270.468     258.281
  H      221.852    -273.072     265.470
  H      212.746    -273.066     257.957
  H      217.884    -273.693     261.755
  H      218.747    -272.514     258.486
  H      217.532    -270.118     259.427
  H      213.271    -271.635     256.183
  H      218.576    -270.257     261.603
  H      214.869    -270.972     256.079
  H      221.133    -271.123     260.173
  H      221.652    -272.269     262.228
  H      221.299    -270.598     262.621
  P      220.070    -268.118     262.045
  C      221.762    -269.060     263.771
  O      221.565    -268.323     262.580
  O      219.170    -268.949     263.081
  O      219.611    -266.703     261.948
  H      218.625    -268.333     263.605
  H      222.740    -269.548     263.723
  H      220.991    -269.823     263.908
  H      221.747    -268.374     264.623
  H      217.731    -273.906     266.295
  H      219.462    -274.134     266.354
  H      218.610    -274.294     264.837

 3  4  5  6  7  8  9  10  11  12  23  26  30  31 0
 6-311+G(2d,p)
 ****
 33  35  36  37  38 0
 6-311+G(2d,p)
 ****
 1  2  13  14  15  16  17  18  19  20  21  22  24  25 0
 3-21G
 ****
 27  28  29  32  34  39  40  41  42  43  44  45  46  47  48  49 0
 3-21G
 ****


