%nproc=1
%NoSave
%Mem=1900MB
#P OB98/GEN NMR

erre ene a

0 1
  C      695.832    -896.570     325.764
  O      697.076    -896.720     326.455
  P      697.727    -898.170     326.580
  C      700.092    -899.150     326.894
  O      699.322    -898.000     326.531
  C      701.600    -898.860     326.678
  O      701.852    -898.640     325.249
  C      702.115    -897.640     327.379
  O      702.315    -897.910     328.756
  C      703.399    -897.370     326.578
  O      704.459    -898.220     327.038
  C      702.961    -897.760     325.160
  N      704.939    -894.050     322.274
  C      705.506    -894.960     323.078
  N      704.900    -895.890     323.852
  C      703.573    -895.810     323.748
  C      702.841    -894.910     322.979
  C      703.586    -894.020     322.185
  N      702.997    -893.140     321.284
  N      701.474    -895.130     323.140
  C      701.402    -896.120     323.981
  N      702.628    -896.600     324.336
  O      697.169    -899.220     325.667
  O      697.448    -898.580     328.121
  H      704.599    -898.070     327.986
  H      696.923    -899.380     328.165
  H      706.588    -894.950     323.109
  H      700.489    -896.560     324.379
  H      703.764    -898.340     324.631
  H      703.729    -896.350     326.677
  H      701.421    -896.780     327.224
  H      702.153    -899.780     326.953
  H      699.773    -900.000     326.293
  H      703.635    -892.620     320.673
  H      702.036    -893.280     321.022
  H      699.911    -899.370     327.956
  P      702.615    -896.700     329.773
  C      702.083    -896.380     332.261
  O      701.631    -896.880     331.021
  O      702.600    -895.340     329.161
  O      704.046    -897.050     330.386
  H      704.529    -896.250     330.592
  H      702.815    -897.100     332.694
  H      701.233    -896.280     332.914
  H      702.574    -895.400     332.140
  H      695.541    -895.541     325.774
  H      695.081    -897.158     326.249
  H      695.944    -896.900     324.752

 3  4  5  6  7  8  9  10  11  12  22  25  29  30  31  32 0
 6-311+G(2d,p)
 ****
 33  36  37 0
 6-311+G(2d,p)
 ****
 1  2  13  14  15  16  17  18  19  20  21  23  24  26 0
 3-21G
 ****
 27  28  34  35  38  39  40  41  42  43  44  45  46  47  48 0
 3-21G
 ****


