%nproc=1
%NoSave
%Mem=1900MB
#P OB98/GEN NMR

erre ene a

0 1
  C     -106.276     -73.485     -74.197
  O     -106.326     -73.683     -72.779
  P     -105.069     -74.341     -72.034
  C     -104.654     -76.359     -70.492
  O     -105.486     -75.797     -71.498
  C     -104.556     -77.888     -70.599
  O     -105.825     -78.510     -70.261
  C     -104.151     -78.398     -71.991
  O     -103.329     -79.556     -71.784
  C     -105.484     -78.786     -72.593
  O     -105.346     -79.668     -73.698
  C     -106.189     -79.370     -71.357
  N     -107.629     -79.454     -71.526
  C     -108.146     -80.641     -72.048
  O     -107.387     -81.529     -72.438
  N     -109.511     -80.783     -72.133
  C     -110.281     -79.772     -71.868
  N     -111.623     -79.953     -71.954
  C     -109.757     -78.440     -71.501
  C     -108.441     -78.359     -71.322
  O     -104.387     -73.471     -71.033
  O     -104.080     -74.689     -73.255
  H     -106.238     -79.919     -74.021
  H     -103.158     -74.568     -72.957
  H     -110.424     -77.598     -71.378
  H     -107.963     -77.435     -71.036
  H     -105.801     -80.377     -71.137
  H     -106.008     -77.886     -72.942
  H     -103.590     -77.665     -72.581
  H     -103.820     -78.226     -69.854
  H     -111.972     -80.863     -72.241
  H     -105.050     -76.091     -69.507
  H     -112.291     -79.220     -71.716
  H     -103.660     -75.892     -70.553
  P     -101.734     -79.404     -71.870
  C     -100.006     -79.225     -73.810
  O     -101.344     -79.052     -73.381
  O     -101.251     -80.934     -71.758
  O     -101.094     -78.589     -70.785
  H     -100.342     -80.956     -71.398
  H      -99.982     -79.204     -74.901
  H      -99.605     -80.181     -73.466
  H      -99.381     -78.409     -73.424
  H     -107.191     -73.039     -74.527
  H     -106.143     -74.428     -74.684
  H     -105.457     -72.840     -74.438

 3  4  5  6  7  8  9  10  11  12  13  23  27  28  29  30  32 0
 6-311+G(2d,p)
 ****
 34  35 0
 6-311+G(2d,p)
 ****
 1  2  14  15  16  17  18  19  20  21  22  24  25  26 0
 3-21G
 ****
 31  33  36  37  38  39  40  41  42  43  44  45  46 0
 3-21G
 ****


