%nproc=1
%NoSave
%Mem=1900MB
#P OB98/GEN NMR

erre ene a

0 1
  C      186.489     -99.434     212.786
  O      185.919     -98.471     211.913
  H      186.557    -100.389     212.257
  H      185.863     -99.573     213.672
  H      187.493     -99.123     213.086
  P      185.569     -97.025     212.508
  C      183.310     -97.908     213.409
  O      184.554     -97.289     213.717
  C      182.173     -97.206     214.149
  O      182.248     -97.489     215.560
  C      182.224     -95.689     214.023
  O      181.771     -95.270     212.749
  C      181.357     -95.278     215.194
  O      179.960     -95.388     214.877
  C      181.763     -96.320     216.263
  N      182.764     -95.810     217.195
  C      182.282     -95.316     218.410
  O      181.073     -95.327     218.649
  N      183.180     -94.801     219.310
  C      184.449     -94.797     219.035
  N      185.284     -94.269     219.971
  C      185.003     -95.323     217.774
  C      184.113     -95.809     216.907
  O      185.107     -95.986     211.531
  O      186.918     -96.587     213.255
  H      179.486     -94.972     215.625
  H      187.508     -96.108     212.642
  H      186.065     -95.303     217.586
  H      184.437     -96.218     215.954
  H      180.887     -96.640     216.841
  H      181.546     -94.249     215.493
  H      183.242     -95.329     214.211
  H      181.219     -97.602     213.775
  H      184.859     -93.910     220.815
  H      183.380     -98.953     213.728
  H      186.293     -94.300     219.905
  H      183.125     -97.886     212.327
  P      182.378     -93.959     212.056
  C      180.431     -92.280     212.333
  O      181.701     -92.719     212.826
  O      182.280     -93.919     210.568
  O      183.888     -93.927     212.598
  H      184.445     -94.616     212.154
  H      180.085     -91.456     212.922
  H      179.727     -93.083     212.395
  H      180.531     -91.972     211.313

 6  7  8  9  10  11  12  13  14  15  16  26  30  31  32  33  35 0
 6-311+G(2d,p)
 ****
 37  38 0
 6-311+G(2d,p)
 ****
 1  2  3  4  5  17  18  19  20  21  22  23  24  25 0
 3-21G
 ****
 27  28  29  34  36  39  40  41  42  43  44  45  46 0
 3-21G
 ****


