%nproc=1
%NoSave
%Mem=1900MB
#P OB98/GEN NMR

erre ene a

0 1
  C      -32.166    -950.033     292.394
  O      -32.672    -948.716     292.576
  P      -33.554    -948.345     293.872
  C      -31.868    -946.661     294.890
  O      -32.488    -947.951     295.000
  C      -32.318    -945.777     296.047
  O      -31.946    -946.389     297.300
  C      -31.686    -944.396     296.060
  O      -32.287    -943.549     295.092
  C      -31.902    -943.985     297.515
  O      -33.264    -943.526     297.702
  C      -31.705    -945.327     298.248
  N      -30.373    -945.448     298.847
  C      -30.200    -944.888     300.114
  O      -31.129    -944.326     300.693
  N      -28.963    -945.002     300.724
  C      -27.990    -945.610     300.110
  N      -26.817    -945.747     300.780
  C      -28.121    -946.162     298.750
  C      -29.320    -946.062     298.184
  O      -34.527    -949.409     294.282
  O      -34.229    -946.941     293.514
  H      -33.374    -943.389     298.670
  H      -35.093    -947.033     293.042
  H      -27.273    -946.655     298.279
  H      -29.507    -946.468     297.201
  H      -32.446    -945.440     299.040
  H      -31.239    -943.192     297.847
  H      -30.608    -944.460     295.852
  H      -33.418    -945.695     296.018
  H      -26.837    -945.509     301.771
  H      -32.195    -946.212     293.941
  H      -26.129    -946.432     300.501
  H      -30.789    -946.786     294.879
  P      -31.341    -942.487     294.351
  C      -31.465    -943.594     292.018
  O      -30.661    -943.270     293.119
  O      -30.153    -942.257     295.391
  O      -32.025    -941.196     293.976
  H      -30.283    -941.419     295.882
  H      -30.812    -943.902     291.178
  H      -32.054    -942.726     291.686
  H      -32.143    -944.419     292.264
  H      -31.610    -950.078     291.481
  H      -32.981    -950.725     292.350
  H      -31.527    -950.286     293.214

 3  4  5  6  7  8  9  10  11  12  13  23  27  28  29  30  32 0
 6-311+G(2d,p)
 ****
 34  35 0
 6-311+G(2d,p)
 ****
 1  2  14  15  16  17  18  19  20  21  22  24  25  26 0
 3-21G
 ****
 31  33  36  37  38  39  40  41  42  43  44  45  46 0
 3-21G
 ****


