%nproc=1
%NoSave
%Mem=1900MB
#P OB98/GEN NMR

erre ene a

0 1
  C      385.502       9.244      13.557
  O      386.269       8.383      14.375
  H      386.078       9.522      12.669
  H      384.598       8.717      13.241
  H      385.213      10.142      14.109
  P      387.556       9.020      15.090
  C      389.308       8.201      13.354
  O      388.614       9.307      13.911
  C      390.428       8.687      12.433
  O      391.266       7.555      12.072
  C      389.919       9.323      11.131
  O      390.754      10.434      10.804
  C      390.103       8.219      10.104
  O      390.233       8.729       8.780
  C      391.354       7.518      10.629
  N      392.866       4.534       6.773
  C      393.001       5.859       6.997
  N      392.571       6.573       8.058
  C      391.992       5.774       8.969
  C      391.776       4.406       8.881
  C      392.238       3.779       7.709
  N      392.074       2.438       7.456
  N      391.111       3.949      10.000
  C      390.928       5.018      10.751
  N      391.434       6.144      10.166
  O      388.183       7.756      15.858
  O      387.290      10.158      16.010
  H      390.785       9.539       8.817
  H      387.685       7.603      16.686
  H      393.516       6.416       6.223
  H      390.431       5.031      11.712
  H      392.277       8.021      10.327
  H      389.239       7.543      10.128
  H      388.882       9.651      11.199
  H      391.064       9.384      12.989
  H      388.605       7.587      12.781
  H      392.380       2.079       6.566
  H      391.556       1.870       8.116
  H      389.734       7.596      14.162
  P      390.197      11.891      11.194
  C      389.592      12.769       8.834
  O      389.117      12.337      10.099
  O      391.446      12.854      10.914
  O      389.743      11.993      12.617
  H      391.608      13.427      11.685
  H      388.762      13.033       8.212
  H      390.146      11.979       8.372
  H      390.226      13.621       8.963

 6  7  8  9  10  11  12  13  14  15  25  28  32  33  34  35 0
 6-311+G(2d,p)
 ****
 36  39  40 0
 6-311+G(2d,p)
 ****
 1  2  3  4  5  16  17  18  19  20  21  22  23  24 0
 3-21G
 ****
 26  27  29  30  31  37  38  41  42  43  44  45  46  47 0
 3-21G
 ****
 48 0
 3-21G
 ****


