%nproc=1
%NoSave
%Mem=1900MB
#P OB98/GEN NMR

erre ene a

0 1
  C     -475.455    1239.809     141.047
  O     -475.027    1238.999     139.926
  P     -474.881    1237.411     140.049
  C     -472.522    1237.388     141.039
  O     -473.910    1237.162     141.293
  C     -471.673    1236.557     142.031
  O     -472.260    1236.672     143.348
  C     -471.609    1235.063     141.744
  O     -470.594    1234.670     140.811
  C     -471.215    1234.536     143.123
  O     -469.823    1234.710     143.346
  C     -472.034    1235.418     144.055
  N     -475.176    1234.573     148.020
  C     -474.008    1235.262     147.905
  N     -473.195    1235.392     146.835
  C     -473.782    1234.847     145.747
  C     -474.957    1234.133     145.679
  C     -475.712    1234.033     146.888
  N     -476.903    1233.355     146.992
  N     -475.199    1233.675     144.413
  C     -474.175    1234.117     143.704
  N     -473.306    1234.849     144.475
  O     -474.501    1236.731     138.774
  O     -476.308    1236.932     140.607
  H     -469.549    1234.103     144.059
  H     -476.419    1235.950     140.452
  H     -473.634    1235.706     148.846
  H     -474.030    1233.928     142.646
  H     -471.485    1235.678     144.992
  H     -471.417    1233.467     143.251
  H     -472.589    1234.664     141.485
  H     -470.680    1236.996     142.065
  H     -472.310    1238.451     141.232
  H     -477.398    1233.436     147.865
  H     -477.372    1233.091     146.128
  H     -472.258    1237.132     140.020
  P     -470.813    1233.234     140.085
  C     -470.371    1231.932     142.292
  O     -471.264    1232.229     141.265
  O     -469.654    1232.811     139.265
  O     -472.150    1233.464     139.237
  H     -472.956    1233.560     139.768
  H     -470.929    1231.362     143.082
  H     -469.993    1232.820     142.759
  H     -469.548    1231.319     141.944
  H     -475.486    1240.837     140.753
  H     -474.766    1239.690     141.857
  H     -476.430    1239.498     141.360

 3  4  5  6  7  8  9  10  11  12  22  25  29  30  31  32 0
 6-311+G(2d,p)
 ****
 33  36  37 0
 6-311+G(2d,p)
 ****
 1  2  13  14  15  16  17  18  19  20  21  23  24  26 0
 3-21G
 ****
 27  28  34  35  38  39  40  41  42  43  44  45  46  47  48 0
 3-21G
 ****


