%nproc=1
%NoSave
%Mem=1900MB
#P OB98/GEN NMR

erre ene a

0 1
  C     -108.963      22.397      37.733
  O     -108.048      22.725      36.709
  H     -109.948      22.244      37.284
  H     -109.034      23.213      38.457
  H     -108.663      21.475      38.237
  P     -106.520      23.005      37.109
  C     -106.548      25.179      35.700
  O     -106.367      24.601      36.984
  C     -106.517      26.701      35.798
  O     -107.471      27.184      36.769
  C     -105.184      27.288      36.249
  O     -104.174      27.245      35.257
  C     -105.618      28.707      36.570
  O     -105.805      29.444      35.349
  C     -106.966      28.449      37.282
  N     -106.834      28.396      38.737
  C     -107.280      29.517      39.448
  O     -107.748      30.489      38.859
  N     -107.155      29.525      40.817
  C     -106.610      28.515      41.420
  N     -106.505      28.579      42.776
  C     -106.109      27.324      40.709
  C     -106.252      27.329      39.386
  O     -105.493      22.203      36.376
  O     -106.476      22.802      38.695
  H     -106.247      30.279      35.587
  H     -105.547      22.953      38.994
  H     -105.636      26.521      41.255
  H     -105.901      26.492      38.793
  H     -107.700      29.221      37.021
  H     -104.891      29.256      37.170
  H     -104.841      26.812      37.176
  H     -106.822      27.100      34.822
  H     -106.858      29.408      43.236
  H     -107.505      24.831      35.300
  H     -106.027      27.874      43.320
  H     -105.745      24.861      35.029
  P     -102.651      27.204      35.769
  C     -101.914      29.033      34.058
  O     -102.019      28.632      35.414
  O     -101.951      26.199      34.743
  O     -102.471      26.789      37.196
  H     -101.878      25.305      35.129
  H     -101.472      30.006      34.007
  H     -102.889      29.060      33.618
  H     -101.302      28.335      33.526

 6  7  8  9  10  11  12  13  14  15  16  26  30  31  32  33  35 0
 6-311+G(2d,p)
 ****
 37  38 0
 6-311+G(2d,p)
 ****
 1  2  3  4  5  17  18  19  20  21  22  23  24  25 0
 3-21G
 ****
 27  28  29  34  36  39  40  41  42  43  44  45  46 0
 3-21G
 ****


