%nproc=1
%NoSave
%Mem=1900MB
#P OB98/GEN NMR

erre ene a

0 1
  C     -149.017     926.991    -259.063
  O     -149.450     928.308    -258.764
  H     -149.779     926.260    -258.774
  H     -148.842     926.926    -260.144
  H     -148.073     926.787    -258.541
  P     -149.856     928.587    -257.236
  C     -152.314     928.996    -257.979
  O     -151.438     928.276    -257.116
  C     -153.762     928.800    -257.535
  O     -154.107     927.415    -257.554
  C     -154.044     929.277    -256.107
  O     -154.222     930.689    -256.033
  C     -155.369     928.555    -255.829
  O     -156.464     929.287    -256.442
  C     -155.171     927.212    -256.571
  N     -156.371     924.541    -252.363
  C     -156.990     925.572    -252.971
  N     -156.604     926.246    -254.093
  C     -155.472     925.733    -254.580
  C     -154.729     924.673    -254.059
  C     -155.209     924.065    -252.904
  N     -154.576     923.017    -252.252
  N     -153.621     924.411    -254.838
  C     -153.682     925.300    -255.807
  N     -154.783     926.111    -255.697
  O     -149.791     930.184    -257.115
  O     -148.999     927.908    -256.214
  H     -157.173     928.659    -256.583
  H     -149.460     930.416    -256.219
  H     -157.912     925.906    -252.520
  H     -152.970     925.375    -256.625
  H     -156.056     926.912    -257.116
  H     -155.595     928.448    -254.774
  H     -153.289     928.920    -255.404
  H     -154.402     929.344    -258.246
  H     -152.199     928.637    -258.994
  H     -155.073     922.504    -251.553
  H     -153.710     922.667    -252.664
  H     -152.042     930.064    -257.947
  P     -154.062     931.380    -254.578
  C     -156.574     932.002    -254.640
  O     -155.535     931.341    -253.940
  O     -153.878     932.936    -254.944
  O     -152.966     930.862    -253.748
  H     -153.391     933.392    -254.215
  H     -157.492     931.893    -254.101
  H     -156.678     931.571    -255.614
  H     -156.336     933.041    -254.734

 6  7  8  9  10  11  12  13  14  15  25  28  32  33  34  35 0
 6-311+G(2d,p)
 ****
 36  39  40 0
 6-311+G(2d,p)
 ****
 1  2  3  4  5  16  17  18  19  20  21  22  23  24 0
 3-21G
 ****
 26  27  29  30  31  37  38  41  42  43  44  45  46  47  48 0
 3-21G
 ****


