%nproc=1
%NoSave
%Mem=1900MB
#P OB98/GEN NMR

erre ene a

0 1
  C       93.894    -273.050    -431.107
  O       94.639    -272.053    -430.397
  P       94.716    -270.583    -431.037
  C       94.917    -269.394    -428.707
  O       95.507    -269.680    -429.968
  C       95.852    -268.514    -427.860
  O       97.074    -269.255    -427.547
  C       96.266    -267.194    -428.525
  O       96.324    -266.203    -427.480
  C       97.653    -267.505    -429.044
  O       98.426    -266.314    -429.251
  C       98.180    -268.426    -427.934
  N       99.332    -269.226    -428.355
  C      100.591    -268.667    -428.165
  O      100.767    -267.509    -427.740
  N      101.659    -269.447    -428.520
  C      101.588    -270.672    -429.114
  O      102.580    -271.334    -429.416
  C      100.232    -271.167    -429.390
  C       99.187    -270.432    -429.032
  O       93.196    -270.109    -430.912
  O       95.273    -270.579    -432.425
  H       92.753    -270.414    -430.096
  H       99.369    -266.577    -429.363
  H      102.588    -269.068    -428.362
  H      100.133    -272.102    -429.931
  H       98.168    -270.741    -429.237
  H       98.478    -267.833    -427.061
  H       97.594    -268.048    -429.997
  H       95.568    -266.877    -429.311
  H       95.331    -268.315    -426.902
  H       94.719    -270.327    -428.163
  H       93.944    -268.916    -428.862
  P       95.622    -264.779    -427.765
  C       93.914    -265.096    -425.812
  O       94.939    -264.330    -426.391
  O       94.376    -265.239    -428.664
  O       96.501    -263.780    -428.445
  H       93.900    -266.000    -428.291
  H       93.742    -264.763    -424.793
  H       94.162    -266.168    -425.793
  H       92.978    -264.963    -426.380
  H       93.929    -273.973    -430.567
  H       94.320    -273.189    -432.079
  H       92.877    -272.733    -431.205

 3  4  5  6  7  8  9  10  11  12  13  24  28  29  30  31  32 0
 6-311+G(2d,p)
 ****
 33  34 0
 6-311+G(2d,p)
 ****
 1  2  14  15  16  17  18  19  20  21  22  23  25  26  27 0
 3-21G
 ****
 35  36  37  38  39  40  41  42  43  44  45 0
 3-21G
 ****


