%nproc=1
%NoSave
%Mem=1900MB
#P OB98/GEN NMR

erre ene a

0 1
  C      -61.816     169.924     -80.795
  O      -63.107     170.448     -80.567
  H      -61.156     170.244     -79.983
  H      -61.419     170.305     -81.741
  H      -61.847     168.832     -80.815
  P      -64.235     170.097     -81.654
  C      -63.514     171.972     -83.300
  O      -63.651     170.575     -83.076
  C      -63.082     172.241     -84.740
  O      -63.299     173.649     -85.045
  C      -61.602     171.934     -85.016
  O      -61.484     171.376     -86.330
  C      -60.960     173.306     -85.001
  O      -59.733     173.336     -85.728
  C      -62.077     174.149     -85.611
  N      -61.139     178.615     -87.751
  C      -61.297     177.362     -88.321
  N      -61.190     177.282     -89.663
  N      -61.545     176.278     -87.625
  C      -61.649     176.509     -86.294
  C      -61.506     177.694     -85.609
  C      -61.216     178.881     -86.388
  O      -61.040     180.011     -85.940
  N      -61.658     177.505     -84.257
  C      -61.898     176.212     -84.123
  N      -61.910     175.567     -85.332
  O      -65.388     171.167     -81.354
  O      -64.745     168.698     -81.622
  H      -59.932     173.103     -86.661
  H      -66.269     170.805     -81.578
  H      -60.939     179.411     -88.332
  H      -62.062     175.697     -83.184
  H      -62.130     174.046     -86.704
  H      -60.755     173.619     -83.968
  H      -61.035     178.081     -90.268
  H      -61.158     171.255     -84.286
  H      -61.313     176.377     -90.104
  H      -63.735     171.670     -85.414
  H      -62.760     172.371     -82.608
  H      -64.476     172.462     -83.100
  P      -60.547     170.084     -86.510
  C      -58.356     171.282     -87.229
  O      -59.020     170.512     -86.235
  O      -60.588     169.830     -88.093
  O      -61.024     168.885     -85.757
  H      -61.117     169.035     -88.286
  H      -57.356     171.490     -86.910
  H      -58.881     172.202     -87.377
  H      -58.331     170.734     -88.147

 6  7  8  9  10  11  12  13  14  15  26  29  33  34 0
 6-311+G(2d,p)
 ****
 36  38  39  40  41 0
 6-311+G(2d,p)
 ****
 1  2  3  4  5  16  17  18  19  20  21  22  23  24  25 0
 3-21G
 ****
 27  28  30  31  32  35  37  42  43  44  45  46  47 0
 3-21G
 ****
 48  49 0
 3-21G
 ****


