%nproc=1
%NoSave
%Mem=1900MB
#P OB98/GEN NMR

erre ene a

0 1
  C     -891.310    -181.145    -407.258
  O     -890.700    -180.087    -407.940
  H     -890.900    -181.203    -406.242
  H     -891.110    -182.088    -407.764
  H     -892.400    -180.977    -407.187
  P     -891.180    -179.817    -409.461
  C     -892.020    -177.390    -408.992
  O     -892.360    -178.725    -409.370
  C     -892.150    -176.468    -410.197
  O     -893.340    -176.805    -410.958
  C     -892.310    -175.003    -409.843
  O     -891.070    -174.382    -409.469
  C     -892.920    -174.434    -411.100
  O     -891.910    -174.151    -412.082
  C     -893.800    -175.605    -411.591
  N     -897.760    -172.433    -412.216
  C     -896.490    -172.440    -412.736
  N     -895.510    -173.320    -412.521
  C     -895.940    -174.305    -411.712
  C     -897.200    -174.460    -411.127
  C     -898.130    -173.462    -411.419
  N     -899.400    -173.448    -410.886
  N     -897.210    -175.574    -410.330
  C     -896.030    -176.114    -410.447
  N     -895.210    -175.382    -411.266
  O     -891.950    -181.184    -409.820
  O     -890.100    -179.507    -410.430
  H     -891.470    -174.990    -412.269
  H     -891.370    -181.746    -410.360
  H     -896.280    -171.595    -413.386
  H     -895.700    -177.011    -409.934
  H     -893.740    -175.749    -412.670
  H     -893.480    -173.518    -410.911
  H     -893.050    -174.893    -409.007
  H     -891.280    -176.618    -410.842
  H     -890.970    -177.374    -408.623
  H     -892.680    -177.077    -408.177
  H     -900.000    -172.666    -411.080
  H     -899.630    -174.145    -410.182
  P     -891.130    -173.109    -408.490
  C     -889.910    -174.183    -406.442
  O     -891.130    -173.682    -406.996
  O     -892.620    -172.549    -408.664
  O     -890.110    -172.066    -408.776
  H     -892.620    -171.580    -408.591
  H     -890.086    -174.525    -405.443
  H     -889.178    -173.403    -406.429
  H     -889.554    -174.996    -407.040

 6  7  8  9  10  11  12  13  14  15  25  28  32  33  34  35 0
 6-311+G(2d,p)
 ****
 36  37  40 0
 6-311+G(2d,p)
 ****
 1  2  3  4  5  16  17  18  19  20  21  22  23  24 0
 3-21G
 ****
 26  27  29  30  31  38  39 41  42  43  44  45  46  47  48 0
 3-21G
 ****


