%nproc=1
%NoSave
%Mem=1900MB
#P OB98/GEN NMR

erre ene a

0 1
  C     -173.434     766.283     851.776
  O     -172.926     765.048     852.239
  H     -173.200     767.056     852.515
  H     -174.522     766.225     851.659
  H     -172.970     766.555     850.826
  P     -173.149     763.776     851.277
  C     -175.210     762.646     850.165
  O     -174.715     763.741     850.934
  C     -176.597     762.254     850.664
  O     -177.363     763.443     850.968
  C     -177.423     761.489     849.644
  O     -177.053     760.126     849.566
  C     -178.835     761.699     850.188
  O     -179.145     760.764     851.224
  C     -178.760     763.128     850.754
  N     -183.170     764.790     848.792
  C     -182.900     763.846     849.729
  N     -181.691     763.479     850.204
  C     -180.706     764.199     849.635
  C     -180.838     765.183     848.663
  C     -182.147     765.479     848.249
  N     -182.429     766.416     847.275
  N     -179.608     765.674     848.300
  C     -178.735     764.994     849.033
  N     -179.360     764.105     849.859
  O     -172.946     762.537     852.270
  O     -172.230     763.705     850.107
  H     -179.141     759.877     850.803
  H     -172.043     762.175     852.157
  H     -183.757     763.333     850.147
  H     -177.656     765.110     848.995
  H     -179.264     763.214     851.727
  H     -179.574     761.576     849.396
  H     -177.352     761.971     848.661
  H     -176.493     761.678     851.595
  H     -174.532     761.791     850.277
  H     -175.247     762.938     849.118
  H     -183.377     766.524     846.971
  H     -181.661     766.849     846.784
  P     -177.607     759.264     848.331
  C     -179.957     758.535     847.468
  O     -179.203     759.330     848.373
  O     -177.272     757.766     848.719
  O     -177.026     759.648     847.005
  H     -177.029     757.245     847.917
  H     -181.001     758.701     847.632
  H     -179.730     757.501     847.627
  H     -179.707     758.804     846.463

 6  7  8  9  10  11  12  13  14  15  25  28  32  33  34  35 0
 6-311+G(2d,p)
 ****
 36  37  40 0
 6-311+G(2d,p)
 ****
 1  2  3  4  5  16  17  18  19  20  21  22  23  24 0
 3-21G
 ****
 26  27  29  30  31  38  39 41  42  43  44  45  46  47  48 0
 3-21G
 ****


