%nproc=1
%NoSave
%Mem=1900MB
#P OB98/GEN NMR

erre ene a

0 1
  C      351.817    -899.170    -745.961
  O      352.879    -899.180    -745.026
  H      350.874    -899.290    -745.419
  H      351.925    -900.000    -746.670
  H      351.797    -898.220    -746.502
  P      354.357    -899.000    -745.621
  C      354.990    -897.030    -744.040
  O      354.750    -897.470    -745.375
  C      355.794    -895.730    -744.046
  O      357.179    -896.030    -744.377
  C      355.305    -894.690    -745.078
  O      355.605    -893.380    -744.580
  C      356.206    -895.010    -746.276
  O      356.152    -893.970    -747.234
  C      357.522    -895.230    -745.542
  N      361.832    -894.690    -748.234
  C      361.124    -893.820    -747.487
  N      359.995    -894.040    -746.789
  C      359.603    -895.330    -746.897
  C      360.239    -896.330    -747.596
  C      361.409    -895.970    -748.302
  N      362.121    -896.860    -749.067
  N      359.548    -897.530    -747.475
  C      358.524    -897.240    -746.695
  N      358.517    -895.920    -746.341
  O      354.121    -899.080    -747.208
  O      355.366    -899.990    -745.152
  H      355.221    -893.760    -747.448
  H      354.288    -899.990    -747.518
  H      361.516    -892.810    -747.451
  H      357.765    -897.950    -746.388
  H      357.956    -894.290    -745.184
  H      355.874    -895.930    -746.780
  H      354.229    -894.770    -745.306
  H      355.802    -895.300    -743.036
  H      355.548    -897.810    -743.513
  H      354.028    -896.860    -743.536
  H      362.947    -896.520    -749.555
  H      361.810    -897.810    -749.150
  P      354.510    -892.210    -744.719
  C      353.441    -892.650    -742.374
  O      353.263    -892.580    -743.780
  O      353.915    -892.500    -746.187
  O      355.031    -890.820    -744.618
  H      353.580    -891.660    -746.559
  H      352.512    -892.907    -741.909
  H      353.772    -891.700    -742.009
  H      354.173    -893.396    -742.144

 6  7  8  9  10  11  12  13  14  15  25  28  32  33  34  35 0
 6-311+G(2d,p)
 ****
 36  37  40 0
 6-311+G(2d,p)
 ****
 1  2  3  4  5  16  17  18  19  20  21  22  23  24 0
 3-21G
 ****
 26  27  29  30  31  38  39 41  42  43  44  45  46  47  48 0
 3-21G
 ****


