%nproc=1
%NoSave
%Mem=1900MB
#P OB98/GEN NMR

erre ene a

0 1
  C     -787.876    -247.478     232.908
  O     -788.670    -248.146     233.865
  H     -787.215    -248.199     232.428
  H     -787.264    -246.716     233.400
  H     -788.505    -247.011     232.139
  P     -789.871    -247.330     234.530
  C     -788.095    -246.620     236.294
  O     -789.437    -247.017     236.042
  C     -787.880    -246.394     237.792
  O     -788.785    -245.337     238.222
  C     -788.172    -247.632     238.658
  O     -787.246    -247.644     239.746
  C     -789.567    -247.355     239.188
  O     -789.873    -248.052     240.394
  C     -789.515    -245.831     239.370
  N     -790.841    -245.226     239.449
  C     -791.521    -245.324     240.658
  O     -791.040    -245.794     241.693
  N     -792.803    -244.831     240.658
  C     -793.462    -244.303     239.592
  O     -794.611    -243.905     239.645
  C     -792.698    -244.241     238.327
  C     -791.442    -244.702     238.320
  O     -791.019    -248.438     234.692
  O     -790.334    -246.132     233.757
  H     -791.576    -248.472     233.892
  H     -789.726    -249.005     240.238
  H     -793.304    -244.900     241.532
  H     -793.197    -243.834     237.460
  H     -790.871    -244.690     237.402
  H     -788.940    -245.578     240.266
  H     -790.323    -247.632     238.441
  H     -788.116    -248.582     238.107
  H     -786.858    -246.033     237.950
  H     -787.890    -245.683     235.755
  H     -787.414    -247.398     235.924
  P     -785.803    -248.297     239.483
  C     -786.506    -250.599     240.541
  O     -785.644    -249.451     240.576
  O     -784.842    -247.126     239.995
  O     -785.606    -248.713     238.067
  H     -785.194    -246.650     240.753
  H     -786.253    -251.259     241.344
  H     -786.383    -251.109     239.608
  H     -787.523    -250.284     240.644

 6  7  8  9  10  11  12  13  14  15  16  27  31  32  33  34  35 0
 6-311+G(2d,p)
 ****
 36  37 0
 6-311+G(2d,p)
 ****
 1  2  3  4  5  17  18  19  20  21  22  23  24  25 0
 3-21G
 ****
 26  28  29  30  38  39  40  41  42  43  44  45 0
 3-21G
 ****


