%nproc=1
%NoSave
%Mem=1900MB
#P OB98/GEN NMR

erre ene a

0 1
  C     -283.520     498.615     528.008
  O     -282.284     498.679     528.702
  H     -284.326     498.553     528.743
  H     -283.558     497.724     527.370
  H     -283.668     499.509     527.405
  P     -280.930     498.707     527.848
  C     -280.516     501.249     528.020
  O     -280.071     499.962     528.399
  C     -279.432     502.298     528.336
  O     -279.496     502.569     529.760
  C     -278.012     501.793     528.000
  O     -277.284     502.691     527.167
  C     -277.425     501.463     529.370
  O     -276.011     501.542     529.443
  C     -278.166     502.431     530.311
  N     -278.221     501.976     531.694
  C     -277.172     502.353     532.543
  O     -276.212     503.053     532.204
  N     -277.253     501.901     533.844
  C     -278.252     501.110     534.344
  O     -278.276     500.744     535.520
  C     -279.312     500.727     533.404
  C     -279.253     501.171     532.140
  O     -281.101     498.678     526.363
  O     -280.105     497.443     528.377
  H     -275.754     501.463     530.382
  H     -280.174     496.716     527.733
  H     -276.507     502.175     534.462
  H     -280.122     500.108     533.764
  H     -280.028     500.916     531.425
  H     -277.692     503.422     530.296
  H     -277.706     500.428     529.632
  H     -278.051     500.877     527.399
  H     -279.669     503.227     527.810
  H     -281.425     501.473     528.560
  H     -280.734     501.280     526.939
  P     -276.251     502.255     526.031
  C     -277.100     503.807     524.087
  O     -276.064     503.481     525.022
  O     -276.490     500.898     525.423
  O     -274.839     502.193     526.824
  H     -274.314     501.478     526.396
  H     -276.799     504.649     523.500
  H     -277.998     504.045     524.618
  H     -277.277     502.970     523.445

 6  7  8  9  10  11  12  13  14  15  16  26  31  32  33  34  35 0
 6-311+G(2d,p)
 ****
 36  37 0
 6-311+G(2d,p)
 ****
 1  2  3  4  5  17  18  19  20  21  22  23  24  25 0
 3-21G
 ****
 27  28  29  30  38  39  40  41  42  43  44  45 0
 3-21G
 ****


