%nproc=1
%NoSave
%Mem=1900MB
#P OB98/GEN NMR

erre ene a

0 1
  C      113.084     407.629     244.741
  O      113.504     408.115     243.481
  H      111.992     407.660     244.785
  H      113.487     408.253     245.543
  H      113.414     406.595     244.876
  P      115.092     408.246     243.262
  C      115.221     405.695     242.715
  O      115.632     406.762     243.557
  C      116.197     404.534     242.840
  O      115.648     403.341     242.236
  C      117.535     404.764     242.145
  O      118.412     405.589     242.893
  C      118.042     403.337     242.053
  O      118.522     402.909     243.339
  C      116.750     402.582     241.663
  N      116.579     402.441     240.217
  C      116.726     401.152     239.691
  O      117.002     400.202     240.423
  N      116.597     400.972     238.333
  C      116.332     401.985     237.569
  N      116.227     401.753     236.233
  C      116.149     403.356     238.081
  C      116.287     403.509     239.399
  O      115.585     409.059     244.548
  O      115.526     408.829     241.960
  H      118.616     401.938     243.301
  H      116.572     409.084     244.571
  H      115.936     404.169     237.405
  H      116.164     404.490     239.848
  H      116.728     401.583     242.119
  H      118.869     403.224     241.347
  H      117.399     405.154     241.130
  H      116.334     404.321     243.911
  H      116.418     400.815     235.902
  H      115.197     406.061     241.682
  H      116.205     402.500     235.550
  H      114.218     405.362     243.001
  P      119.682     406.208     242.131
  C      118.387     408.431     241.758
  O      119.128     407.370     241.170
  O      120.090     405.049     241.109
  O      120.824     406.603     243.019
  H      121.062     404.977     241.030
  H      118.088     409.122     240.997
  H      118.997     408.935     242.478
  H      117.518     408.035     242.241

 6  7  8  9  10  11  12  13  14  15  16  26  30  31  32  33  35 0
 6-311+G(2d,p)
 ****
 37  38 0
 6-311+G(2d,p)
 ****
 1  2  3  4  5  17  18  19  20  21  22  23  24  25 0
 3-21G
 ****
 27  28  29  34  36  39  40  41  42  43  44  45  46 0
 3-21G
 ****


