%nproc=1
%NoSave
%Mem=1900MB
#P OB98/GEN NMR

erre ene a

0 1
  C     -216.134     373.275      14.750
  O     -217.454     373.385      15.251
  H     -216.177     372.879      13.731
  H     -215.541     372.595      15.367
  H     -215.656     374.261      14.718
  P     -217.661     373.908      16.753
  C     -217.156     376.328      15.992
  O     -216.808     375.267      16.873
  C     -217.686     377.527      16.782
  O     -216.706     377.964      17.745
  C     -218.023     378.743      15.925
  O     -219.304     378.598      15.329
  C     -217.987     379.844      16.976
  O     -219.198     379.796      17.768
  C     -216.785     379.419      17.835
  N     -213.012     382.581      19.098
  C     -214.232     382.366      19.714
  N     -214.496     383.118      20.805
  N     -215.117     381.495      19.295
  C     -214.749     380.862      18.152
  C     -213.576     381.006      17.439
  C     -212.576     381.922      17.955
  O     -211.473     382.125      17.446
  N     -213.599     380.266      16.280
  C     -214.757     379.639      16.323
  N     -215.500     379.972      17.435
  O     -217.381     372.917      17.843
  O     -219.180     374.424      16.787
  H     -219.346     378.860      18.009
  H     -219.784     373.719      17.079
  H     -212.375     383.267      19.463
  H     -215.113     378.929      15.579
  H     -216.922     379.676      18.894
  H     -217.926     380.845      16.543
  H     -213.923     383.905      21.089
  H     -217.245     378.941      15.180
  H     -215.411     383.015      21.235
  H     -218.565     377.189      17.350
  H     -217.923     375.950      15.303
  H     -216.286     376.631      15.400
  P     -219.700     379.383      13.981
  C     -220.634     377.220      12.890
  O     -219.677     378.263      12.818
  O     -218.883     380.592      13.696
  O     -221.266     379.662      14.132
  H     -221.458     380.491      14.645
  H     -220.502     376.557      12.061
  H     -221.619     377.637      12.859
  H     -220.504     376.679      13.804

 6  7  8  9  10  11  12  13  14  15  26  29  33  34 0
 6-311+G(2d,p)
 ****
 36  38  39  40  41 0
 6-311+G(2d,p)
 ****
 1  2  3  4  5  16  17  18  19  20  21  22  23  24  25 0
 3-21G
 ****
 27  28  30  31  32  35  37  42  43  44  45  46  47 0
 3-21G
 ****
 48  49 0
 3-21G
 ****


