%nproc=1
%NoSave
%Mem=1900MB
#P OB98/GEN NMR

erre ene a

0 1
  C     -247.948     -47.047      90.499
  O     -247.379     -46.215      89.509
  H     -247.695     -46.643      91.482
  H     -247.548     -48.063      90.419
  H     -249.036     -47.065      90.392
  P     -247.606     -46.656      87.982
  C     -248.174     -44.278      87.175
  O     -248.665     -45.590      87.413
  C     -249.148     -43.494      86.290
  O     -249.342     -44.229      85.057
  C     -250.524     -43.292      86.932
  O     -251.011     -41.994      86.598
  C     -251.387     -44.347      86.265
  O     -252.769     -43.998      86.261
  C     -250.753     -44.434      84.875
  N     -251.764     -46.773      80.457
  C     -251.436     -45.497      80.747
  N     -251.167     -44.958      81.958
  C     -251.215     -45.900      82.916
  C     -251.535     -47.238      82.773
  C     -251.827     -47.672      81.466
  N     -252.187     -48.965      81.162
  N     -251.519     -47.874      83.997
  C     -251.180     -46.940      84.866
  N     -251.002     -45.724      84.259
  O     -247.965     -48.089      87.770
  O     -246.239     -46.183      87.300
  H     -252.869     -43.142      85.796
  H     -245.979     -45.294      87.603
  H     -251.392     -44.814      79.903
  H     -251.068     -47.085      85.935
  H     -251.135     -43.666      84.192
  H     -251.281     -45.302      86.797
  H     -250.501     -43.411      88.017
  H     -248.688     -42.536      86.022
  H     -247.195     -44.323      86.684
  H     -252.365     -49.194      80.198
  H     -252.221     -49.655      81.901
  H     -248.056     -43.779      88.141
  P     -251.131     -40.900      87.764
  C     -248.892     -39.786      87.127
  O     -249.656     -40.407      88.157
  O     -252.012     -41.264      88.912
  O     -251.714     -39.628      86.982
  H     -252.348     -39.162      87.561
  H     -247.935     -39.505      87.513
  H     -249.406     -38.915      86.778
  H     -248.762     -40.472      86.316

 6  7  8  9  10  11  12  13  14  15  25  28  32  33  34  35 0
 6-311+G(2d,p)
 ****
 36  39  40 0
 6-311+G(2d,p)
 ****
 1  2  3  4  5  16  17  18  19  20  21  22  23  24 0
 3-21G
 ****
 26  27  29  30  31  37  38  41  42  43  44  45  46  47 0
 3-21G
 ****
 48 0
 3-21G
 ****


