%nproc=1
%NoSave
%Mem=1900MB
#P OB98/GEN NMR

erre ene a

0 1
  C      513.938     384.296       5.193
  O      515.172     383.639       4.969
  H      513.941     384.708       6.201
  H      513.111     383.588       5.107
  H      513.807     385.114       4.480
  P      515.410     382.939       3.545
  C      514.454     380.809       2.439
  O      514.247     381.843       3.397
  C      513.140     380.109       2.129
  O      512.272     380.988       1.383
  C      513.290     378.843       1.289
  O      513.667     377.749       2.108
  C      511.891     378.715       0.717
  O      511.003     378.202       1.734
  C      511.543     380.186       0.412
  N      509.980     380.753      -4.383
  C      509.327     380.196      -3.298
  N      508.100     379.684      -3.527
  N      509.839     380.131      -2.092
  C      511.102     380.628      -2.022
  C      511.852     381.187      -3.038
  C      511.255     381.303      -4.338
  O      511.793     381.804      -5.333
  N      513.116     381.510      -2.598
  C      513.113     381.182      -1.317
  N      511.913     380.630      -0.921
  O      516.785     382.392       3.301
  O      515.009     384.066       2.484
  H      510.097     378.281       1.383
  H      515.786     384.589       2.212
  H      509.534     380.755      -5.288
  H      513.940     381.334      -0.633
  H      510.473     380.395       0.539
  H      511.831     378.040      -0.136
  H      507.795     379.446      -4.463
  H      513.993     378.987       0.454
  H      507.631     379.223      -2.756
  H      512.638     379.893       3.078
  H      515.171     380.102       2.875
  H      514.887     381.224       1.520
  P      514.202     376.372       1.467
  C      513.059     374.497       0.103
  O      512.881     375.610       0.970
  O      515.083     375.565       2.351
  O      514.891     376.809       0.093
  H      515.846     377.047       0.184
  H      512.104     374.085      -0.149
  H      513.650     373.753       0.595
  H      513.557     374.816      -0.789

 6  7  8  9  10  11  12  13  14  15  26  29  33  34 0
 6-311+G(2d,p)
 ****
 36  38  39  40  41 0
 6-311+G(2d,p)
 ****
 1  2  3  4  5  16  17  18  19  20  21  22  23  24  25 0
 3-21G
 ****
 27  28  30  31  32  35  37  42  43  44  45  46  47 0
 3-21G
 ****
 48  49 0
 3-21G
 ****


