%nproc=1
%NoSave
%Mem=1900MB
#P OB98/GEN NMR

erre ene a

0 1
  C       12.739     -99.344     -29.918
  O       13.990     -98.748     -30.196
  H       12.577    -100.200     -30.577
  H       12.737     -99.691     -28.881
  H       11.935     -98.615     -30.047
  P       14.194     -98.188     -31.686
  C       16.020     -96.394     -31.311
  O       15.721     -97.697     -31.790
  C       16.059     -96.394     -29.785
  O       16.877     -97.514     -29.353
  C       16.645     -95.111     -29.172
  O       15.777     -94.597     -28.155
  C       17.937     -95.568     -28.520
  O       18.238     -94.856     -27.325
  C       17.675     -97.046     -28.259
  N       21.995     -97.551     -25.602
  C       20.808     -96.995     -25.278
  N       19.666     -96.979     -25.994
  C       19.820     -97.651     -27.148
  C       20.961     -98.289     -27.604
  C       22.097     -98.204     -26.782
  N       23.323     -98.722     -27.137
  N       20.740     -98.866     -28.840
  C       19.499     -98.544     -29.144
  N       18.908     -97.797     -28.159
  O       13.356     -96.823     -31.682
  O       13.734     -99.110     -32.763
  H       19.169     -95.042     -27.104
  H       12.646     -96.888     -32.348
  H       20.771     -96.490     -24.317
  H       18.998     -98.782     -30.074
  H       17.103     -97.201     -27.336
  H       18.762     -95.426     -29.227
  H       16.828     -94.334     -29.920
  H       15.045     -96.571     -29.407
  H       15.248     -95.693     -31.648
  H       24.110     -98.516     -26.544
  H       23.430     -99.112     -28.063
  H       16.985     -96.076     -31.718
  P       15.145     -93.143     -28.430
  C       13.415     -92.742     -26.534
  O       14.733     -92.505     -27.014
  O       13.745     -93.481     -29.127
  O       15.991     -92.275     -29.298
  H       13.690     -93.036     -29.995
  H       13.288     -92.259     -25.588
  H       13.261     -93.795     -26.420
  H       12.705     -92.351     -27.233

 6  7  8  9  10  11  12  13  14  15  25  28  32  33  34  35 0
 6-311+G(2d,p)
 ****
 36  39  40 0
 6-311+G(2d,p)
 ****
 1  2  3  4  5  16  17  18  19  20  21  22  23  24 0
 3-21G
 ****
 26  27  29  30  31  37  38  41  42  43  44  45  46  47  48 0
 3-21G
 ****


