%nproc=1
%NoSave
%Mem=1900MB
#P OB98/GEN NMR

erre ene a

0 1
  C     -517.741    -684.963     366.080
  O     -517.227    -683.733     366.545
  H     -518.628    -685.217     366.666
  H     -517.005    -685.761     366.202
  H     -518.031    -684.886     365.027
  P     -515.912    -683.145     365.839
  C     -515.117    -681.863     367.932
  O     -515.586    -681.770     366.594
  C     -514.182    -680.697     368.241
  O     -513.059    -680.698     367.337
  C     -514.843    -679.323     368.109
  O     -515.593    -679.017     369.278
  C     -513.614    -678.442     367.943
  O     -512.972    -678.254     369.219
  C     -512.735    -679.312     367.029
  N     -510.854    -680.083     362.384
  C     -510.324    -680.403     363.623
  N     -509.097    -680.969     363.616
  N     -510.933    -680.170     364.754
  C     -512.116    -679.534     364.606
  C     -512.737    -679.155     363.434
  C     -512.079    -679.468     362.185
  O     -512.528    -679.222     361.068
  N     -513.905    -678.474     363.685
  C     -514.005    -678.480     365.000
  N     -512.938    -679.096     365.604
  O     -515.963    -683.021     364.345
  O     -514.742    -684.122     366.322
  H     -513.524    -677.621     369.714
  H     -514.604    -684.847     365.687
  H     -510.326    -680.274     361.547
  H     -514.829    -678.057     365.558
  H     -511.665    -679.177     367.227
  H     -513.845    -677.456     367.543
  H     -508.482    -680.906     362.813
  H     -515.448    -679.248     367.204
  H     -508.670    -681.165     364.512
  H     -513.781    -680.843     369.253
  H     -514.589    -682.815     368.032
  H     -515.959    -681.853     368.631
  P     -517.107    -678.499     369.174
  C     -517.233    -677.938     371.692
  O     -517.724    -678.743     370.631
  O     -517.896    -679.085     368.054
  O     -516.981    -676.908     369.115
  H     -516.879    -676.554     368.194
  H     -517.729    -678.206     372.602
  H     -517.420    -676.907     371.474
  H     -516.180    -678.094     371.800

 6  7  8  9  10  11  12  13  14  15  26  29  33  34 0
 6-311+G(2d,p)
 ****
 36  38  39  40  41 0
 6-311+G(2d,p)
 ****
 1  2  3  4  5  16  17  18  19  20  21  22  23  24  25 0
 3-21G
 ****
 27  28  30  31  32  35  37  42  43  44  45  46  47 0
 3-21G
 ****
 48  49 0
 3-21G
 ****


