%nproc=1
%NoSave
%Mem=1900MB
#P OB98/GEN NMR

erre ene a

0 1
  C      -44.971    -658.476     149.391
  O      -45.891    -658.887     148.374
  P      -45.381    -659.850     147.200
  C      -45.061    -658.210     145.236
  O      -44.423    -659.019     146.214
  C      -44.422    -658.415     143.847
  O      -44.518    -659.816     143.468
  C      -45.096    -657.575     142.749
  O      -44.157    -656.823     141.967
  C      -45.922    -658.599     141.983
  O      -46.200    -658.190     140.651
  C      -45.115    -659.899     142.158
  N      -45.945    -661.086     141.991
  C      -46.186    -661.498     140.691
  O      -45.811    -660.876     139.700
  N      -46.953    -662.631     140.560
  C      -47.544    -663.321     141.570
  O      -48.251    -664.308     141.391
  C      -47.308    -662.802     142.926
  C      -46.527    -661.724     143.075
  O      -46.441    -660.650     146.520
  O      -44.343    -660.812     147.956
  H      -46.776    -658.882     140.221
  H      -44.442    -661.718     147.583
  H      -47.117    -662.955     139.610
  H      -47.775    -663.308     143.752
  H      -46.350    -661.305     144.052
  H      -44.311    -659.946     141.421
  H      -46.884    -658.716     142.486
  H      -45.766    -656.819     143.171
  H      -43.364    -658.160     143.943
  H      -44.980    -657.154     145.515
  H      -46.136    -658.441     145.214
  P      -44.099    -655.224     141.939
  C      -45.914    -654.316     140.327
  O      -45.572    -654.655     141.663
  O      -43.029    -654.629     141.085
  O      -43.836    -654.852     143.482
  H      -43.203    -654.102     143.532
  H      -46.765    -653.628     140.364
  H      -46.214    -655.223     139.791
  H      -45.086    -653.828     139.806
  H      -45.473    -657.841     150.090
  H      -44.159    -657.942     148.943
  H      -44.593    -659.338     149.900

 3  4  5  6  7  8  9  10  11  12  13  23  28  29  30  31  32 0
 6-311+G(2d,p)
 ****
 33  34 0
 6-311+G(2d,p)
 ****
 1  2  14  15  16  17  18  19  20  21  22  24  25  26  27 0
 3-21G
 ****
 35  36  37  38  39  40  41  42  43  44  45 0
 3-21G
 ****


