%nproc=1
%NoSave
%Mem=1900MB
#P OB98/GEN NMR

erre ene a

0 1
  C      621.947    -852.684    -438.115
  O      622.751    -852.996    -437.002
  P      622.629    -852.151    -435.640
  C      620.605    -853.176    -434.401
  O      622.030    -853.171    -434.554
  C      620.127    -854.483    -433.784
  O      620.396    -855.590    -434.652
  C      620.801    -854.825    -432.467
  O      620.268    -854.044    -431.407
  C      620.516    -856.318    -432.359
  O      619.204    -856.553    -431.832
  C      620.594    -856.764    -433.841
  N      621.850    -857.426    -434.150
  C      621.866    -858.813    -434.004
  O      620.863    -859.410    -433.589
  N      623.028    -859.503    -434.259
  C      624.100    -858.840    -434.621
  N      625.223    -859.577    -434.856
  C      624.143    -857.374    -434.761
  C      622.987    -856.735    -434.504
  O      621.927    -850.852    -435.770
  O      624.167    -852.005    -435.169
  H      619.073    -855.903    -431.112
  H      624.649    -851.339    -435.734
  H      625.050    -856.869    -435.038
  H      622.929    -855.657    -434.580
  H      619.768    -857.448    -434.082
  H      621.222    -856.826    -431.710
  H      621.882    -854.667    -432.557
  H      619.043    -854.407    -433.634
  H      625.167    -860.574    -434.725
  H      620.157    -853.061    -435.396
  H      626.117    -859.156    -435.109
  H      620.301    -852.310    -433.794
  P      621.213    -853.578    -430.201
  C      620.815    -851.067    -430.599
  O      620.674    -852.139    -429.695
  O      622.679    -853.653    -430.468
  O      620.797    -854.554    -429.003
  H      621.624    -854.868    -428.557
  H      620.131    -850.263    -430.294
  H      620.562    -851.380    -431.614
  H      621.835    -850.692    -430.577
  H      622.174    -853.354    -438.918
  H      622.141    -851.678    -438.424
  H      620.915    -852.783    -437.849

 3  4  5  6  7  8  9  10  11  12  13  23  27  28  29  30  32 0
 6-311+G(2d,p)
 ****
 34  35 0
 6-311+G(2d,p)
 ****
 1  2  14  15  16  17  18  19  20  21  22  24  25  26 0
 3-21G
 ****
 31  33  36  37  38  39  40  41  42  43  44  45  46 0
 3-21G
 ****


