%nproc=1
%NoSave
%Mem=1900MB
#P OB98/GEN NMR

erre ene a

0 1
  C      163.606     115.180     100.850
  O      164.635     115.182     101.813
  H      162.973     116.058     101.016
  H      162.985     114.287     100.955
  H      164.021     115.233      99.840
  P      165.695     113.975     101.833
  C      166.151     114.108     104.357
  O      166.690     114.307     103.057
  C      165.659     115.427     104.955
  O      164.343     115.742     104.423
  C      165.544     115.406     106.487
  O      166.140     116.585     107.034
  C      164.043     115.434     106.734
  O      163.697     115.961     108.011
  C      163.568     116.248     105.525
  N      162.134     116.113     105.304
  C      161.421     117.306     105.141
  O      162.006     118.388     105.182
  N      160.058     117.247     104.991
  C      159.455     116.099     105.050
  N      158.101     116.114     104.922
  C      160.166     114.819     105.247
  C      161.493     114.897     105.364
  O      166.366     113.713     100.527
  O      164.873     112.717     102.381
  H      162.727     115.857     108.138
  H      165.326     111.890     102.097
  H      159.616     113.891     105.293
  H      162.100     114.012     105.513
  H      163.805     117.312     105.650
  H      163.649     114.410     106.673
  H      166.008     114.532     106.942
  H      166.327     116.230     104.619
  H      157.655     117.015     104.796
  H      166.923     113.663     104.993
  H      157.523     115.290     104.976
  H      165.306     113.416     104.278
  P      166.954     116.398     108.405
  C      166.082     118.054     110.204
  O      167.005     117.820     109.148
  O      168.458     116.165     107.913
  O      166.465     115.260     109.236
  H      168.722     115.239     108.078
  H      166.234     119.036     110.600
  H      166.234     117.330     110.977
  H      165.083     117.971     109.829

 6  7  8  9  10  11  12  13  14  15  16  26  30  31  32  33  35 0
 6-311+G(2d,p)
 ****
 37  38 0
 6-311+G(2d,p)
 ****
 1  2  3  4  5  17  18  19  20  21  22  23  24  25 0
 3-21G
 ****
 27  28  29  34  36  39  40  41  42  43  44  45  46 0
 3-21G
 ****


