%nproc=1
%NoSave
%Mem=1900MB
#P OB98/GEN NMR

erre ene a

0 1
  C      305.616     435.205    -471.855
  O      304.609     435.593    -472.766
  H      306.285     434.502    -472.346
  H      305.159     434.709    -470.986
  H      306.193     436.075    -471.523
  P      303.617     436.763    -472.292
  C      305.613     438.478    -472.449
  O      304.561     437.910    -471.684
  C      305.571     440.002    -472.393
  O      305.422     440.415    -471.009
  C      306.831     440.678    -472.951
  O      306.440     441.889    -473.601
  C      307.626     441.009    -471.702
  O      308.552     442.076    -471.923
  C      306.504     441.318    -470.699
  N      306.944     441.186    -469.309
  C      307.381     442.340    -468.673
  O      307.406     443.421    -469.281
  N      307.826     442.264    -467.376
  C      307.888     441.110    -466.789
  N      308.363     441.088    -465.515
  C      307.478     439.841    -467.439
  C      307.010     439.958    -468.677
  O      302.926     436.111    -471.012
  O      302.660     437.230    -473.345
  H      309.029     441.897    -472.766
  H      303.553     435.661    -470.421
  H      307.561     438.906    -466.912
  H      306.673     439.088    -469.233
  H      306.131     442.348    -470.844
  H      308.191     440.134    -471.375
  H      307.379     440.037    -473.649
  H      304.673     440.346    -472.925
  H      308.662     441.973    -465.113
  H      305.541     438.145    -473.493
  H      308.508     440.242    -464.974
  H      306.560     438.108    -472.045
  P      307.221     442.363    -474.929
  C      306.018     440.621    -476.418
  O      307.261     441.148    -475.970
  O      308.517     443.071    -474.696
  O      306.158     443.362    -475.612
  H      306.653     444.136    -475.961
  H      306.197     439.820    -477.105
  H      305.459     441.392    -476.907
  H      305.463     440.255    -475.580

 6  7  8  9  10  11  12  13  14  15  16  26  30  31  32  33  35 0
 6-311+G(2d,p)
 ****
 37  38 0
 6-311+G(2d,p)
 ****
 1  2  3  4  5  17  18  19  20  21  22  23  24  25 0
 3-21G
 ****
 27  28  29  34  36  39  40  41  42  43  44  45  46 0
 3-21G
 ****


