%nproc=1
%NoSave
%Mem=1900MB
#P OB98/GEN NMR

erre ene a

0 1
  C     -116.754    -755.082     991.783
  O     -118.124    -755.080     992.125
  H     -116.552    -755.948     991.145
  H     -116.150    -755.164     992.693
  H     -116.482    -754.166     991.244
  P     -118.737    -753.717     992.711
  C     -119.298    -752.575     990.444
  O     -118.472    -752.583     991.602
  C     -119.550    -751.140     989.966
  O     -118.252    -750.501     989.763
  C     -120.318    -751.047     988.640
  O     -121.194    -749.908     988.697
  C     -119.237    -750.765     987.626
  O     -119.734    -750.132     986.454
  C     -118.283    -749.897     988.446
  N     -115.813    -748.115     984.469
  C     -117.103    -747.857     984.905
  N     -117.874    -747.081     984.141
  N     -117.593    -748.373     986.011
  C     -116.711    -749.131     986.696
  C     -115.409    -749.444     986.373
  C     -114.881    -748.907     985.138
  O     -113.758    -749.090     984.688
  N     -114.860    -750.298     987.303
  C     -115.829    -750.513     988.179
  N     -116.972    -749.817     987.853
  O     -117.698    -753.350     993.879
  O     -120.136    -753.805     993.212
  H     -120.567    -750.574     986.193
  H     -118.039    -753.691     994.737
  H     -115.484    -747.710     983.605
  H     -115.762    -751.160     989.030
  H     -118.649    -748.868     988.563
  H     -118.748    -751.703     987.332
  H     -117.566    -746.628     983.286
  H     -120.918    -751.948     988.403
  H     -118.807    -746.858     984.466
  H     -120.052    -750.584     990.763
  H     -120.266    -753.032     990.695
  H     -118.821    -753.171     989.660
  P     -122.761    -750.118     988.399
  C     -123.330    -750.895     990.832
  O     -123.330    -751.213     989.444
  O     -122.755    -750.900     987.013
  O     -123.529    -748.845     988.321
  H     -123.524    -750.641     986.483
  H     -123.734    -751.716     991.386
  H     -123.928    -750.024     990.998
  H     -122.327    -750.706     991.155

 6  7  8  9  10  11  12  13  14  15  26  29  33  34 0
 6-311+G(2d,p)
 ****
 36  38  39  40  41 0
 6-311+G(2d,p)
 ****
 1  2  3  4  5  16  17  18  19  20  21  22  23  24  25 0
 3-21G
 ****
 27  28  30  31  32  35  37  42  43  44  45  46  47 0
 3-21G
 ****
 48  49 0
 3-21G
 ****


