%nproc=1
%NoSave
%Mem=1900MB
#P OB98/GEN NMR

erre ene a

0 1
  C       42.117    -131.121    -365.857
  O       41.626    -131.663    -364.645
  H       42.626    -130.177    -365.635
  H       41.289    -130.914    -366.543
  H       42.828    -131.798    -366.328
  P       40.967    -133.124    -364.666
  C       38.639    -134.093    -365.215
  O       39.399    -132.928    -364.928
  C       37.328    -134.067    -364.428
  O       36.682    -132.786    -364.571
  C       36.318    -135.110    -364.882
  O       36.657    -136.400    -364.417
  C       35.035    -134.538    -364.295
  O       34.917    -134.869    -362.901
  C       35.251    -133.015    -364.483
  N       34.559    -132.486    -365.656
  C       33.176    -132.381    -365.559
  O       32.535    -132.742    -364.567
  N       32.534    -131.871    -366.661
  C       33.118    -131.574    -367.856
  O       32.489    -131.204    -368.843
  C       34.578    -131.724    -367.910
  C       35.221    -132.169    -366.827
  O       41.308    -134.004    -363.512
  O       41.484    -133.747    -366.050
  H       33.995    -134.668    -362.651
  H       42.182    -134.402    -365.867
  H       31.534    -131.804    -366.612
  H       35.080    -131.490    -368.834
  H       36.303    -132.288    -366.848
  H       34.900    -132.468    -363.599
  H       34.143    -134.919    -364.791
  H       36.231    -135.097    -365.975
  H       37.573    -134.205    -363.362
  H       39.223    -134.974    -364.923
  H       38.440    -134.134    -366.296
  P       36.437    -137.668    -365.360
  C       34.465    -138.819    -366.545
  O       34.856    -137.862    -365.568
  O       37.177    -138.908    -364.963
  O       36.925    -137.160    -366.802
  H       37.671    -137.720    -367.112
  H       33.397    -138.861    -366.595
  H       34.848    -139.781    -366.275
  H       34.856    -138.534    -367.499

 6  7  8  9  10  11  12  13  14  15  16  26  31  32  33  34  35 0
 6-311+G(2d,p)
 ****
 36  37 0
 6-311+G(2d,p)
 ****
 1  2  3  4  5  17  18  19  20  21  22  23  24  25 0
 3-21G
 ****
 27  28  29  30  38  39  40  41  42  43  44  45 0
 3-21G
 ****


