%nproc=1
%NoSave
%Mem=1900MB
#P OB98/GEN NMR

erre ene a

0 1
  C       87.260    -252.012       5.976
  O       87.798    -253.268       6.335
  H       86.752    -251.586       6.844
  H       86.535    -252.128       5.166
  H       88.060    -251.335       5.666
  P       88.541    -254.095       5.179
  C       90.984    -253.427       5.754
  O       89.897    -253.306       4.847
  C       92.283    -253.601       4.974
  O       92.480    -252.475       4.089
  C       93.529    -253.653       5.847
  O       93.706    -254.918       6.457
  C       94.609    -253.334       4.827
  O       95.011    -254.507       4.102
  C       93.901    -252.324       3.897
  N       94.343    -250.955       4.135
  C       95.498    -250.568       3.462
  O       96.122    -251.316       2.709
  N       95.938    -249.296       3.709
  C       95.370    -248.409       4.577
  O       95.856    -247.310       4.809
  C       94.143    -248.868       5.250
  C       93.698    -250.103       5.010
  O       87.622    -253.830       3.896
  O       88.716    -255.551       5.456
  H       87.065    -254.611       3.718
  H       95.488    -254.188       3.311
  H       96.778    -249.002       3.239
  H       93.664    -248.185       5.940
  H       92.808    -250.471       5.511
  H       94.103    -252.566       2.846
  H       95.504    -252.934       5.302
  H       93.502    -252.851       6.595
  H       92.202    -254.508       4.362
  H       90.831    -254.302       6.393
  H       91.023    -252.533       6.385
  P       94.365    -254.979       7.918
  C       92.241    -255.947       9.124
  O       93.157    -254.879       8.968
  O       95.071    -253.548       7.998
  O       95.273    -256.143       8.118
  H       94.565    -252.848       7.551
  H       91.515    -255.689       9.866
  H       92.767    -256.826       9.431
  H       91.748    -256.133       8.193

 6  7  8  9  10  11  12  13  14  15  16  27  31  32  33  34  35 0
 6-311+G(2d,p)
 ****
 36  37 0
 6-311+G(2d,p)
 ****
 1  2  3  4  5  17  18  19  20  21  22  23  24  25 0
 3-21G
 ****
 26  28  29  30  38  39  40  41  42  43  44  45 0
 3-21G
 ****


