%nproc=1
%NoSave
%Mem=1900MB
#P OB98/GEN NMR

erre ene a

0 1
  C      294.798     125.216    -158.760
  O      294.318     124.359    -159.783
  P      293.750     122.920    -159.350
  C      291.246     123.631    -159.466
  O      292.323     123.174    -158.663
  C      290.095     122.624    -159.449
  O      288.921     123.249    -160.034
  C      290.359     121.331    -160.234
  O      289.654     120.281    -159.562
  C      289.702     121.607    -161.576
  O      289.392     120.420    -162.292
  C      288.491     122.423    -161.134
  N      284.588     123.240    -164.249
  C      284.799     122.216    -163.343
  N      283.798     121.316    -163.212
  N      285.890     122.082    -162.632
  C      286.793     123.067    -162.859
  C      286.717     124.107    -163.756
  C      285.493     124.261    -164.507
  O      285.228     125.200    -165.257
  N      287.870     124.845    -163.765
  C      288.607     124.299    -162.820
  N      287.980     123.246    -162.209
  O      294.695     122.519    -158.122
  O      293.733     121.880    -160.427
  H      290.239     120.001    -162.557
  H      295.446     121.971    -158.422
  H      283.719     123.297    -164.757
  H      289.597     124.626    -162.530
  H      287.663     121.789    -160.782
  H      290.375     122.212    -162.201
  H      282.919     121.372    -163.706
  H      291.419     121.086    -160.327
  H      283.913     120.575    -162.533
  H      289.855     122.393    -158.403
  H      291.595     123.743    -160.498
  H      290.912     124.611    -159.108
  P      290.342     118.835    -159.507
  C      291.420     119.329    -157.200
  O      291.619     118.940    -158.548
  O      290.992     118.693    -160.968
  O      289.404     117.704    -159.230
  H      290.985     117.758    -161.238
  H      292.267     118.978    -156.606
  H      290.500     118.903    -156.796
  H      291.372     120.419    -157.141
  H      295.142     126.132    -159.194
  H      295.606     124.739    -158.246
  H      294.008     125.423    -158.069

 3  4  5  6  7  8  9  10  11  12  23  26  30  31 0
 6-311+G(2d,p)
 ****
 33  35  36  37  38 0
 6-311+G(2d,p)
 ****
 1  2  13  14  15  16  17  18  19  20  21  22  24  25 0
 3-21G
 ****
 27  28  29  32  34  39  40  41  42  43  44  45  46  47  48  49 0
 3-21G
 ****


