%nproc=1
%NoSave
%Mem=1900MB
#P OB98/GEN NMR

erre ene a

0 1
  C       57.737     499.858     263.583
  O       57.464     498.925     262.559
  H       57.426     499.433     264.540
  H       57.173     500.779     263.411
  H       58.809     500.081     263.627
  P       57.985     499.274     261.081
  C       59.108     496.948     260.802
  O       58.150     497.876     260.309
  C       58.886     495.567     260.176
  O       57.904     494.852     260.969
  C       58.378     495.624     258.735
  O       58.996     494.561     257.993
  C       56.891     495.345     258.863
  O       56.326     494.797     257.673
  C       56.854     494.415     260.081
  N       55.544     494.440     260.734
  C       54.618     493.482     260.313
  O       54.912     492.677     259.427
  N       53.356     493.493     260.859
  C       53.026     494.434     261.694
  N       51.757     494.408     262.178
  C       53.958     495.504     262.113
  C       55.188     495.441     261.608
  O       59.497     499.740     261.322
  O       57.184     500.296     260.347
  H       55.354     494.757     257.784
  H       59.769     500.415     260.669
  H       53.627     496.279     262.790
  H       55.933     496.188     261.852
  H       57.078     493.381     259.784
  H       56.361     496.282     259.086
  H       58.582     496.578     258.241
  H       59.825     495.004     260.244
  H       51.145     493.667     261.850
  H       58.998     496.868     261.891
  H       51.379     495.115     262.794
  H       60.116     497.310     260.577
  P       59.942     494.994     256.773
  C       61.678     493.075     257.042
  O       60.683     493.679     256.223
  O       61.117     495.821     257.486
  O       59.246     495.814     255.734
  H       61.026     496.769     257.286
  H       62.077     492.216     256.544
  H       61.241     492.777     257.972
  H       62.464     493.778     257.226

 6  7  8  9  10  11  12  13  14  15  16  26  30  31  32  33  35 0
 6-311+G(2d,p)
 ****
 37  38 0
 6-311+G(2d,p)
 ****
 1  2  3  4  5  17  18  19  20  21  22  23  24  25 0
 3-21G
 ****
 27  28  29  34  36  39  40  41  42  43  44  45  46 0
 3-21G
 ****


