%nproc=1
%NoSave
%Mem=1900MB
#P OB98/GEN NMR

erre ene a

0 1
  C     1343.172     859.078    -514.418
  O     1343.290     857.667    -514.369
  P     1342.826     856.832    -513.083
  C     1344.039     855.233    -511.464
  O     1344.162     856.317    -512.402
  C     1345.401     854.674    -511.060
  O     1345.930     853.912    -512.212
  C     1346.465     855.700    -510.656
  O     1347.257     855.055    -509.659
  C     1347.219     855.883    -511.936
  O     1348.536     856.449    -511.713
  C     1347.259     854.470    -512.503
  N     1347.544     854.442    -513.935
  C     1348.812     854.890    -514.315
  O     1349.614     855.326    -513.479
  N     1349.154     854.870    -515.667
  C     1348.261     854.507    -516.528
  N     1348.652     854.466    -517.831
  C     1346.897     854.153    -516.180
  C     1346.581     854.118    -514.869
  O     1341.786     855.795    -513.350
  O     1342.336     857.968    -512.055
  H     1348.948     855.997    -510.961
  H     1341.431     858.298    -512.314
  H     1346.155     853.899    -516.954
  H     1345.599     853.867    -514.493
  H     1347.988     853.827    -511.980
  H     1346.694     856.569    -512.604
  H     1346.009     856.612    -510.256
  H     1345.241     853.924    -510.264
  H     1349.630     854.709    -518.020
  H     1343.411     854.454    -511.907
  H     1348.066     854.143    -518.592
  H     1343.493     855.615    -510.563
  P     1348.274     855.897    -508.736
  C     1350.528     857.038    -509.035
  O     1349.477     856.362    -509.693
  O     1348.691     855.206    -507.471
  O     1347.483     857.286    -508.424
  H     1347.925     857.736    -507.680
  H     1351.418     857.068    -509.744
  H     1350.847     856.534    -508.134
  H     1350.261     858.075    -508.792
  H     1343.537     859.434    -515.359
  H     1343.746     859.512    -513.626
  H     1342.144     859.354    -514.306

 3  4  5  6  7  8  9  10  11  12  13  23  27  28  29  30  32 0
 6-311+G(2d,p)
 ****
 34  35 0
 6-311+G(2d,p)
 ****
 1  2  14  15  16  17  18  19  20  21  22  24  25  26 0
 3-21G
 ****
 31  33  36  37  38  39  40  41  42  43  44  45  46 0
 3-21G
 ****


