%nproc=1
%NoSave
%Mem=1900MB
#P OB98/GEN NMR

erre ene a

0 1
  C       17.738    -212.580      68.635
  O       19.061    -212.555      68.107
  P       19.304    -211.728      66.757
  C       18.915    -213.533      64.894
  O       18.427    -212.409      65.601
  C       17.840    -214.102      63.950
  O       17.667    -213.179      62.843
  C       18.177    -215.443      63.309
  O       16.970    -216.037      62.825
  C       19.035    -215.019      62.137
  O       19.133    -216.049      61.157
  C       18.343    -213.716      61.677
  N       19.278    -212.712      61.125
  C       19.687    -212.845      59.800
  O       19.319    -213.751      59.055
  N       20.582    -211.912      59.349
  C       21.066    -210.858      60.062
  O       21.933    -210.104      59.638
  C       20.498    -210.685      61.404
  C       19.654    -211.607      61.870
  O       20.813    -212.082      66.366
  O       19.093    -210.259      66.906
  H       19.376    -216.872      61.639
  H       21.398    -211.327      66.560
  H       20.938    -212.036      58.413
  H       20.807    -209.819      61.977
  H       19.239    -211.504      62.870
  H       17.593    -213.921      60.902
  H       20.049    -214.802      62.483
  H       18.700    -216.143      63.967
  H       16.884    -214.157      64.485
  H       19.245    -214.300      65.598
  H       19.795    -213.244      64.308
  P       16.286    -217.181      63.715
  C       18.027    -219.071      63.737
  O       17.483    -217.969      64.436
  O       15.276    -218.033      63.023
  O       15.634    -216.354      64.925
  H       14.950    -216.893      65.361
  H       19.077    -219.183      64.019
  H       17.962    -218.932      62.654
  H       17.485    -219.978      64.019
  H       17.723    -213.164      69.531
  H       17.075    -213.013      67.915
  H       17.423    -211.581      68.855

 3  4  5  6  7  8  9  10  11  12  13  23  28  29  30  31  32 0
 6-311+G(2d,p)
 ****
 33  34 0
 6-311+G(2d,p)
 ****
 1  2  14  15  16  17  18  19  20  21  22  24  25  26  27 0
 3-21G
 ****
 35  36  37  38  39  40  41  42  43  44  45 0
 3-21G
 ****


