%nproc=1
%NoSave
%Mem=1900MB
#P OB98/GEN NMR

erre ene a

0 1
  C     -237.556     419.308     251.738
  O     -238.153     420.593     251.547
  P     -238.792     421.293     252.845
  C     -241.053     421.120     254.129
  O     -240.196     420.566     253.137
  C     -242.501     420.679     253.901
  O     -243.056     421.310     252.731
  C     -242.671     419.181     253.661
  O     -242.643     418.447     254.882
  C     -244.058     419.141     253.034
  O     -245.061     419.174     254.072
  C     -244.095     420.437     252.211
  N     -246.205     419.390     247.718
  C     -246.788     419.527     248.965
  N     -248.135     419.387     249.015
  N     -246.121     419.775     250.058
  C     -244.791     419.919     249.857
  C     -244.091     419.803     248.675
  C     -244.838     419.497     247.471
  O     -244.363     419.334     246.350
  N     -242.743     420.021     248.860
  C     -242.633     420.294     250.146
  N     -243.846     420.233     250.797
  O     -239.229     422.731     252.299
  O     -237.860     421.394     254.006
  H     -244.889     418.409     254.652
  H     -239.237     423.384     253.030
  H     -246.767     419.188     246.911
  H     -241.711     420.550     250.653
  H     -245.044     420.970     252.324
  H     -244.233     418.234     252.451
  H     -248.716     419.270     248.198
  H     -241.926     418.815     252.944
  H     -248.585     419.518     249.910
  H     -243.091     420.987     254.777
  H     -240.998     422.210     254.105
  H     -240.700     420.806     255.119
  P     -241.648     417.189     254.956
  C     -241.030     415.332     253.253
  O     -241.961     416.320     253.648
  O     -242.256     416.323     256.158
  O     -240.217     417.551     255.185
  H     -241.550     415.810     256.593
  H     -240.662     414.766     254.115
  H     -240.185     415.806     252.739
  H     -241.520     414.642     252.560
  H     -237.170     418.952     250.806
  H     -238.292     418.623     252.104
  H     -236.759     419.387     252.447

 3  4  5  6  7  8  9  10  11  12  23  26  30  31  33  0
 6-311+G(2d,p)
 ****
 35  36  37  38 0
 6-311+G(2d,p)
 ****
 1  2  13  14  15  16  17  18  19  20  21  22  24  25  27  28  29 0
 3-21G
 ****
 32  34  39  40  41  42  43  44  45  46  47  48  49 0
 3-21G
 ****


