%nproc=1
%NoSave
%Mem=1900MB
#P OB98/GEN NMR

erre ene a

0 1
  C     -632.760     226.615      62.297
  O     -633.750     226.915      61.285
  P     -634.903     227.997      61.536
  C     -635.871     226.953      63.680
  O     -636.115     227.284      62.313
  C     -637.184     226.829      64.479
  O     -637.849     228.085      64.583
  C     -638.183     225.850      63.856
  O     -637.832     224.510      64.158
  C     -639.483     226.345      64.515
  O     -639.623     225.799      65.838
  C     -639.273     227.854      64.564
  N     -642.948     231.155      63.239
  C     -642.556     230.664      64.443
  N     -641.575     229.800      64.715
  C     -640.943     229.425      63.589
  C     -641.230     229.837      62.291
  C     -642.285     230.746      62.140
  N     -642.693     231.234      60.912
  N     -640.363     229.228      61.385
  C     -639.574     228.482      62.121
  N     -639.886     228.564      63.459
  O     -635.320     228.739      60.295
  O     -634.303     229.009      62.616
  H     -640.418     226.206      66.243
  H     -634.700     229.894      62.511
  H     -643.118     231.037      65.310
  H     -638.773     227.864      61.746
  H     -639.658     228.288      65.490
  H     -640.375     226.039      63.948
  H     -638.237     226.017      62.780
  H     -636.910     226.512      65.487
  H     -635.257     227.751      64.132
  H     -643.476     231.854      60.885
  H     -642.229     230.897      60.077
  H     -635.313     226.011      63.726
  P     -637.134     223.603      63.041
  C     -639.237     222.155      62.932
  O     -637.840     222.161      63.092
  O     -635.640     223.597      63.079
  O     -637.673     224.229      61.642
  H     -637.003     224.092      60.962
  H     -639.715     222.407      63.885
  H     -639.558     221.154      62.631
  H     -639.559     222.866      62.159
  H     -632.087     225.869      61.928
  H     -633.248     226.251      63.177
  H     -632.213     227.503      62.535

 3  4  5  6  7  8  9  10  11  12  22  25  29  30  31  32 0
 6-311+G(2d,p)
 ****
 33  36  37 0
 6-311+G(2d,p)
 ****
 1  2  13  14  15  16  17  18  19  20  21  23  24  26 0
 3-21G
 ****
 27  28  34  35  38  39  40  41  42  43  44  45  46  47  48 0
 3-21G
 ****


