%nproc=1
%NoSave
%Mem=1900MB
#P OB98/GEN NMR

erre ene a

0 1
  C     -124.385      45.744    -220.074
  O     -123.039      45.913    -220.465
  H     -124.829      44.954    -220.685
  H     -124.946      46.668    -220.240
  H     -124.452      45.453    -219.023
  P     -122.113      46.925    -219.635
  C     -120.380      48.745    -220.201
  O     -121.371      47.860    -220.706
  C     -119.820      49.600    -221.336
  O     -118.995      48.798    -222.209
  C     -120.890      50.218    -222.228
  O     -121.511      51.315    -221.585
  C     -120.062      50.568    -223.455
  O     -119.320      51.780    -223.248
  C     -119.105      49.354    -223.539
  N     -119.552      48.343    -224.499
  C     -119.309      48.623    -225.840
  O     -118.757      49.650    -226.225
  N     -119.768      47.691    -226.734
  C     -120.507      46.586    -226.425
  O     -121.080      45.900    -227.267
  C     -120.666      46.304    -224.992
  C     -120.202      47.190    -224.107
  O     -121.221      46.300    -218.616
  O     -123.165      47.926    -218.958
  H     -123.296      47.672    -218.025
  H     -118.750      51.626    -222.470
  H     -119.638      47.906    -227.712
  H     -121.193      45.401    -224.704
  H     -120.337      47.018    -223.044
  H     -118.098      49.680    -223.830
  H     -120.676      50.717    -224.344
  H     -121.632      49.460    -222.507
  H     -119.185      50.380    -220.895
  H     -119.571      48.151    -219.762
  H     -120.823      49.374    -219.423
  P     -122.786      52.036    -222.226
  C     -122.994      53.827    -224.047
  O     -122.363      52.614    -223.661
  O     -123.468      53.023    -221.338
  O     -123.772      50.830    -222.600
  H     -124.650      50.999    -222.203
  H     -122.642      54.120    -225.014
  H     -122.762      54.592    -223.335
  H     -124.054      53.682    -224.083

 6  7  8  9  10  11  12  13  14  15  16  27  31  32  33  34  35 0
 6-311+G(2d,p)
 ****
 36  37 0
 6-311+G(2d,p)
 ****
 1  2  3  4  5  17  18  19  20  21  22  23  24  25 0
 3-21G
 ****
 26  28  29  30  38  39  40  41  42  43  44  45 0
 3-21G
 ****


