%nproc=1
%NoSave
%Mem=1900MB
#P OB98/GEN NMR

erre ene a

0 1
  C       29.160      83.390     186.530
  O       28.009      82.634     186.195
  P       27.485      81.544     187.245
  C       28.383      79.649     185.713
  O       27.288      80.156     186.461
  C       28.011      79.505     184.236
  O       27.114      78.375     184.067
  C       27.305      80.736     183.655
  O       27.676      80.892     182.279
  C       25.840      80.351     183.690
  O       25.080      81.097     182.739
  C       25.932      78.854     183.397
  N       20.936      78.313     182.836
  C       21.845      78.957     182.022
  N       21.336      79.621     180.959
  N       23.134      78.948     182.226
  C       23.500      78.252     183.330
  C       22.693      77.559     184.206
  C       21.266      77.588     183.975
  O       20.405      77.061     184.675
  N       23.430      76.944     185.187
  C       24.675      77.300     184.936
  N       24.764      78.119     183.840
  O       25.986      82.024     187.542
  O       28.278      81.462     188.507
  H       25.601      81.118     181.915
  H       25.940      82.441     188.422
  H       19.950      78.359     182.645
  H       25.538      77.012     185.523
  H       26.061      78.661     182.324
  H       25.427      80.541     184.687
  H       20.347      79.722     180.786
  H       27.506      81.669     184.194
  H       21.975      80.137     180.372
  H       28.922      79.277     183.666
  H       28.664      78.672     186.108
  H       29.243      80.320     185.822
  P       27.976      82.394     181.796
  C       26.596      82.042     179.616
  O       27.840      82.378     180.202
  O       29.550      82.551     182.042
  O       27.182      83.435     182.509
  H       29.780      83.490     182.174
  H       26.222      82.903     179.058
  H       25.852      81.751     180.364
  H       26.743      81.205     178.925
  H       29.384      84.070     185.735
  H       29.989      82.730     186.679
  H       28.976      83.940     187.429

 3  4  5  6  7  8  9  10  11  12  23  26  30  31 0
 6-311+G(2d,p)
 ****
 33  35  36  37  38 0
 6-311+G(2d,p)
 ****
 1  2  13  14  15  16  17  18  19  20  21  22  24  25 0
 3-21G
 ****
 27  28  29  32  34  39  40  41  42  43  44  45  46  47  48  49 0
 3-21G
 ****


