%nproc=1
%NoSave
%Mem=1900MB
#P OB98/GEN NMR

erre ene a

0 1
  C      616.256      28.889    -106.424
  O      616.512      30.220    -106.053
  H      615.249      28.829    -106.852
  H      616.306      28.242    -105.541
  H      616.976      28.537    -107.178
  P      618.024      30.659    -105.738
  C      617.370      31.794    -103.506
  O      617.949      31.958    -104.787
  C      616.140      32.689    -103.328
  O      616.540      34.075    -103.430
  C      615.128      32.430    -104.451
  O      613.783      32.696    -104.037
  C      615.523      33.454    -105.509
  O      614.475      33.754    -106.430
  C      615.956      34.625    -104.629
  N      617.633      39.403    -105.216
  C      616.524      38.948    -104.545
  N      615.740      39.891    -103.970
  N      616.201      37.688    -104.455
  C      617.031      36.868    -105.155
  C      618.143      37.195    -105.873
  C      618.516      38.597    -105.933
  O      619.486      39.069    -106.532
  N      618.721      36.097    -106.457
  C      617.956      35.096    -106.083
  N      616.911      35.509    -105.274
  O      618.534      31.275    -107.130
  O      618.928      29.572    -105.249
  H      614.477      33.068    -107.100
  H      619.510      31.220    -107.184
  H      617.854      40.389    -105.237
  H      618.102      34.058    -106.354
  H      615.091      35.233    -104.352
  H      616.346      33.025    -106.096
  H      615.854      40.887    -104.155
  H      615.192      31.412    -104.833
  H      614.787      39.612    -103.721
  H      615.709      32.557    -102.334
  H      618.141      32.053    -102.767
  H      617.107      30.743    -103.345
  P      612.903      31.452    -103.516
  C      611.234      30.743    -105.407
  O      611.491      31.521    -104.248
  O      612.592      31.838    -101.989
  O      613.609      30.135    -103.619
  H      613.142      31.294    -101.391
  H      610.237      30.928    -105.747
  H      611.343      29.705    -105.171
  H      611.928      31.009    -106.176

 6  7  8  9  10  11  12  13  14  15  26  29  33  34 0
 6-311+G(2d,p)
 ****
 36  38  39  40  41 0
 6-311+G(2d,p)
 ****
 1  2  3  4  5  16  17  18  19  20  21  22  23  24  25 0
 3-21G
 ****
 27  28  30  31  32  35  37  42  43  44  45  46  47 0
 3-21G
 ****
 48  49 0
 3-21G
 ****


