%nproc=1
%NoSave
%Mem=1900MB
#P OB98/GEN NMR

erre ene a

0 1
  C     -485.795     107.867     -41.944
  O     -485.409     109.229     -41.977
  H     -486.847     107.789     -42.236
  H     -485.682     107.468     -40.932
  H     -485.186     107.283     -42.643
  P     -483.921     109.564     -41.470
  C     -485.015     111.379     -39.945
  O     -484.161     110.245     -40.031
  C     -485.546     111.523     -38.520
  O     -486.488     110.473     -38.218
  C     -484.475     111.428     -37.435
  O     -483.709     112.615     -37.288
  C     -485.358     111.174     -36.220
  O     -486.007     112.398     -35.834
  C     -486.360     110.154     -36.806
  N     -485.940     108.759     -36.621
  C     -486.852     107.902     -35.998
  O     -487.953     108.313     -35.619
  N     -486.488     106.596     -35.773
  C     -485.329     106.177     -36.166
  N     -485.016     104.868     -35.909
  C     -484.334     107.040     -36.842
  C     -484.705     108.304     -37.033
  O     -483.491     110.811     -42.377
  O     -482.955     108.428     -41.475
  H     -486.708     112.155     -35.204
  H     -482.642     111.196     -42.045
  H     -483.374     106.648     -37.134
  H     -484.032     108.998     -37.525
  H     -487.353     110.285     -36.353
  H     -484.799     110.822     -35.355
  H     -483.825     110.558     -37.590
  H     -486.087     112.477     -38.461
  H     -485.687     104.316     -35.396
  H     -485.851     111.236     -40.641
  H     -484.087     104.491     -36.039
  H     -484.467     112.285     -40.221
  P     -482.444     112.559     -36.307
  C     -483.315     114.187     -34.464
  O     -482.988     112.846     -34.827
  O     -481.634     113.888     -36.673
  O     -481.589     111.332     -36.450
  H     -480.669     113.752     -36.583
  H     -483.660     114.208     -33.452
  H     -484.084     114.554     -35.111
  H     -482.446     114.804     -34.557

 6  7  8  9  10  11  12  13  14  15  16  26  30  31  32  33  35 0
 6-311+G(2d,p)
 ****
 37  38 0
 6-311+G(2d,p)
 ****
 1  2  3  4  5  17  18  19  20  21  22  23  24  25 0
 3-21G
 ****
 27  28  29  34  36  39  40  41  42  43  44  45  46 0
 3-21G
 ****


