%nproc=1
%NoSave
%Mem=1900MB
#P OB98/GEN NMR

erre ene a

0 1
  C     -411.861     603.832      18.293
  O     -410.694     604.505      17.828
  P     -410.553     606.062      18.178
  C     -410.173     607.433      16.011
  O     -411.116     606.853      16.899
  C     -410.726     608.733      15.424
  O     -412.066     608.523      14.958
  C     -410.805     609.889      16.414
  O     -409.553     610.535      16.584
  C     -411.803     610.802      15.712
  O     -411.126     611.581      14.711
  C     -412.757     609.794      15.044
  N     -417.182     611.857      16.424
  C     -416.173     612.369      15.634
  N     -416.386     613.602      15.112
  N     -415.058     611.737      15.378
  C     -415.001     610.504      15.932
  C     -415.937     609.885      16.733
  C     -417.142     610.615      17.048
  O     -418.044     610.235      17.799
  N     -415.527     608.622      17.089
  C     -414.374     608.465      16.475
  N     -413.994     609.588      15.780
  O     -408.970     606.311      18.095
  O     -411.111     606.460      19.503
  H     -410.529     610.982      14.235
  H     -408.727     607.073      18.659
  H     -418.029     612.376      16.573
  H     -413.784     607.561      16.510
  H     -413.013     610.097      14.024
  H     -412.287     611.512      16.390
  H     -417.271     614.079      15.168
  H     -411.227     609.557      17.371
  H     -415.672     613.977      14.504
  H     -410.099     609.006      14.562
  H     -409.959     606.737      15.196
  H     -409.240     607.628      16.559
  P     -408.845     610.356      18.019
  C     -409.898     611.627      20.032
  O     -410.010     610.570      19.093
  O     -407.957     611.683      18.151
  O     -408.033     609.110      18.155
  H     -407.192     611.520      18.738
  H     -409.425     612.510      19.579
  H     -409.307     611.299      20.881
  H     -410.898     611.907      20.370
  H     -411.825     602.806      17.991
  H     -412.730     604.297      17.877
  H     -411.903     603.888      19.361

 3  4  5  6  7  8  9  10  11  12  23  26  30  31  33  0
 6-311+G(2d,p)
 ****
 35  36  37  38 0
 6-311+G(2d,p)
 ****
 1  2  13  14  15  16  17  18  19  20  21  22  24  25  27  28  29 0
 3-21G
 ****
 32  34  39  40  41  42  43  44  45  46  47  48  49 0
 3-21G
 ****


