%nproc=1
%NoSave
%Mem=1900MB
#P OB98/GEN NMR

erre ene a

0 1
  C       55.543       5.610      40.231
  O       54.622       5.550      41.322
  P       54.291       4.152      42.037
  C       53.055       3.195      40.011
  O       54.140       3.012      40.914
  C       52.423       1.878      39.543
  O       53.366       1.097      38.768
  C       51.909       0.975      40.669
  O       50.761       0.305      40.139
  C       53.062       0.007      40.857
  O       52.675      -1.179      41.538
  C       53.523      -0.183      39.406
  N       54.897      -0.668      39.321
  C       55.077      -1.991      38.916
  O       54.103      -2.714      38.706
  N       56.355      -2.482      38.808
  C       57.358      -1.743      39.167
  N       58.599      -2.292      39.061
  C       57.209      -0.368      39.683
  C       55.964       0.103      39.721
  O       53.171       4.203      43.023
  O       55.665       3.764      42.769
  H       52.241      -0.923      42.380
  H       55.466       3.243      43.570
  H       58.072       0.201      39.995
  H       55.750       1.103      40.078
  H       52.873      -0.896      38.885
  H       53.853       0.485      41.447
  H       51.658       1.519      41.582
  H       51.597       2.135      38.868
  H       58.656      -3.246      38.727
  H       53.419       3.747      39.139
  H       59.432      -1.849      39.418
  H       52.294       3.820      40.492
  P       49.354       0.303      40.899
  C       49.998      -1.492      42.603
  O       49.642      -0.136      42.410
  O       48.274      -0.475      40.220
  O       48.955       1.851      41.034
  H       48.003       1.922      41.227
  H       50.374      -1.620      43.620
  H       50.778      -1.794      41.896
  H       49.119      -2.127      42.465
  H       55.630       6.621      39.893
  H       55.188       4.995      39.430
  H       56.501       5.258      40.553

 3  4  5  6  7  8  9  10  11  12  13  23  27  28  29  30  32 0
 6-311+G(2d,p)
 ****
 34  35 0
 6-311+G(2d,p)
 ****
 1  2  14  15  16  17  18  19  20  21  22  24  25  26 0
 3-21G
 ****
 31  33  36  37  38  39  40  41  42  43  44  45  46 0
 3-21G
 ****


