%nproc=1
%NoSave
%Mem=1900MB
#P OB98/GEN NMR

erre ene a

0 1
  C     -907.169     -50.216     -75.338
  O     -907.632     -49.735     -76.598
  P     -907.143     -50.488     -77.921
  C     -906.995     -48.265     -79.241
  O     -907.529     -49.589     -79.200
  C     -907.946     -47.313     -79.981
  O     -907.881     -47.600     -81.410
  C     -909.427     -47.459     -79.597
  O     -909.921     -46.675     -78.515
  C     -910.117     -46.938     -80.854
  O     -910.174     -45.495     -80.821
  C     -909.191     -47.385     -81.987
  N     -912.550     -49.292     -85.350
  C     -912.337     -48.033     -84.894
  N     -911.420     -47.609     -84.001
  C     -910.667     -48.635     -83.566
  C     -910.765     -49.966     -83.940
  C     -911.766     -50.288     -84.868
  N     -911.990     -51.572     -85.326
  N     -909.825     -50.723     -83.283
  C     -909.181     -49.870     -82.506
  N     -909.648     -48.588     -82.655
  O     -907.493     -51.933     -78.031
  O     -905.541     -50.300     -77.858
  H     -910.706     -45.262     -80.036
  H     -905.119     -51.110     -78.193
  H     -912.989     -47.268     -85.306
  H     -908.382     -50.135     -81.829
  H     -909.072     -46.615     -82.761
  H     -911.147     -47.287     -80.951
  H     -909.694     -48.513     -79.440
  H     -907.620     -46.283     -79.832
  H     -906.022     -48.282     -79.752
  H     -912.752     -51.719     -85.961
  H     -911.448     -52.332     -84.945
  H     -906.807     -47.952     -78.212
  P     -910.252     -47.334     -77.093
  C     -912.438     -46.165     -76.232
  O     -911.032     -46.196     -76.263
  O     -909.089     -47.933     -76.382
  O     -911.422     -48.369     -77.454
  H     -912.261     -47.950     -77.724
  H     -912.759     -45.468     -75.461
  H     -912.839     -47.154     -76.004
  H     -912.824     -45.825     -77.198
  H     -907.579     -49.614     -74.554
  H     -906.101     -50.163     -75.307
  H     -907.480     -51.232     -75.208

 3  4  5  6  7  8  9  10  11  12  22  25  29  30  31  32 0
 6-311+G(2d,p)
 ****
 33  36  37 0
 6-311+G(2d,p)
 ****
 1  2  13  14  15  16  17  18  19  20  21  23  24  26 0
 3-21G
 ****
 27  28  34  35  38  39  40  41  42  43  44  45  46  47  48 0
 3-21G
 ****


