%nproc=1
%NoSave
%Mem=1900MB
#P OB98/GEN NMR

erre ene a

0 1
  C     -268.619    -104.574     132.944
  O     -269.329    -104.800     131.747
  P     -268.568    -105.309     130.426
  C     -269.560    -103.231     129.265
  O     -268.385    -104.004     129.508
  C     -269.226    -101.741     129.232
  O     -268.631    -101.323     130.480
  C     -268.232    -101.343     128.146
  O     -268.866    -101.303     126.876
  C     -267.750    -100.004     128.664
  O     -268.657     -98.950     128.312
  C     -267.737    -100.226     130.196
  N     -266.396    -100.469     130.712
  C     -265.455     -99.465     130.462
  O     -265.760     -98.466     129.806
  N     -264.165     -99.645     130.917
  C     -263.847    -100.732     131.541
  N     -262.559    -100.860     131.954
  C     -264.805    -101.826     131.802
  C     -266.048    -101.634     131.359
  O     -269.188    -106.491     129.754
  O     -267.078    -105.589     130.951
  H     -268.279     -98.125     128.689
  H     -267.034    -106.414     131.491
  H     -264.492    -102.724     132.315
  H     -266.814    -102.386     131.504
  H     -268.153     -99.348     130.709
  H     -266.767     -99.724     128.254
  H     -267.395    -102.054     128.133
  H     -270.166    -101.185     129.101
  H     -261.928    -100.093     131.728
  H     -270.277    -103.425     130.069
  H     -262.196    -101.679     132.418
  H     -270.015    -103.546     128.320
  P     -268.332    -102.227     125.690
  C     -267.077    -100.241     124.663
  O     -266.982    -101.579     125.127
  O     -269.350    -102.584     124.649
  O     -267.814    -103.547     126.442
  H     -268.120    -104.329     125.948
  H     -266.073     -99.812     124.631
  H     -267.693     -99.632     125.326
  H     -267.494    -100.229     123.662
  H     -269.296    -104.241     133.703
  H     -267.872    -103.826     132.780
  H     -268.150    -105.483     133.258

 3  4  5  6  7  8  9  10  11  12  13  23  27  28  29  30  32 0
 6-311+G(2d,p)
 ****
 34  35 0
 6-311+G(2d,p)
 ****
 1  2  14  15  16  17  18  19  20  21  22  24  25  26 0
 3-21G
 ****
 31  33  36  37  38  39  40  41  42  43  44  45  46 0
 3-21G
 ****


