%nproc=1
%NoSave
%Mem=1900MB
#P OB98/GEN NMR

erre ene a

0 1
  C       80.971    -198.449    -349.054
  O       80.014    -199.495    -349.021
  P       79.566    -200.056    -347.584
  C       78.902    -202.331    -348.729
  O       79.615    -201.653    -347.706
  C       79.731    -203.502    -349.262
  O       80.871    -203.005    -349.995
  C       80.307    -204.411    -348.187
  O       79.324    -205.292    -347.659
  C       81.431    -205.103    -348.953
  O       80.903    -206.172    -349.756
  C       81.939    -203.961    -349.854
  N       83.157    -203.328    -349.353
  C       84.361    -203.880    -349.786
  O       84.424    -204.842    -350.549
  N       85.495    -203.291    -349.293
  C       85.548    -202.275    -348.381
  O       86.594    -201.817    -347.939
  C       84.245    -201.759    -347.937
  C       83.129    -202.298    -348.434
  O       78.008    -199.692    -347.602
  O       80.344    -199.467    -346.460
  H       77.654    -199.655    -348.508
  H       80.648    -206.885    -349.137
  H       86.382    -203.658    -349.609
  H       84.245    -200.961    -347.205
  H       82.161    -201.938    -348.110
  H       82.142    -204.341    -350.866
  H       82.190    -205.532    -348.292
  H       80.733    -203.809    -347.376
  H       79.105    -204.075    -349.958
  H       78.693    -201.630    -349.542
  H       77.950    -202.690    -348.324
  P       79.144    -205.288    -346.060
  C       78.195    -207.717    -345.885
  O       79.245    -206.820    -345.594
  O       77.587    -204.929    -345.920
  O       80.061    -204.341    -345.352
  H       77.034    -205.402    -346.565
  H       78.579    -208.738    -345.821
  H       77.791    -207.553    -346.887
  H       77.396    -207.594    -345.145
  H       81.171    -198.180    -350.070
  H       81.876    -198.779    -348.588
  H       80.588    -197.599    -348.529

 3  4  5  6  7  8  9  10  11  12  13  24  28  29  30  31  32 0
 6-311+G(2d,p)
 ****
 33  34 0
 6-311+G(2d,p)
 ****
 1  2  14  15  16  17  18  19  20  21  22  23  25  26  27 0
 3-21G
 ****
 35  36  37  38  39  40  41  42  43  44  45 0
 3-21G
 ****


