%nproc=1
%NoSave
%Mem=1900MB
#P OB98/GEN NMR

erre ene a

0 1
  C      106.977     -37.549     119.526
  O      107.243     -38.685     118.718
  P      108.007     -39.966     119.316
  C      110.448     -40.493     119.924
  O      109.554     -39.546     119.350
  C      111.888     -40.147     119.557
  O      112.015     -40.201     118.115
  C      112.361     -38.746     119.950
  O      112.826     -38.633     121.285
  C      113.533     -38.567     118.990
  O      114.683     -39.278     119.489
  C      113.014     -39.228     117.712
  N      113.922     -36.024     113.824
  C      114.728     -36.870     114.509
  N      114.415     -37.677     115.546
  C      113.104     -37.588     115.833
  C      112.160     -36.776     115.223
  C      112.616     -35.965     114.168
  N      111.786     -35.121     113.458
  N      110.918     -36.944     115.809
  C      111.115     -37.849     116.744
  N      112.415     -38.274     116.795
  O      107.695     -41.247     118.628
  O      107.604     -39.978     120.862
  H      114.783     -39.030     120.429
  H      107.798     -40.852     121.254
  H      115.768     -36.897     114.185
  H      110.351     -38.223     117.412
  H      113.798     -39.770     117.169
  H      113.832     -37.519     118.875
  H      111.597     -37.990     119.729
  H      112.551     -40.914     119.981
  H      110.203     -41.484     119.528
  H      112.171     -34.676     112.637
  H      110.790     -35.196     113.605
  H      110.313     -40.514     121.012
  P      112.388     -37.319     122.106
  C      112.230     -34.808     121.388
  O      112.822     -36.074     121.192
  O      112.865     -37.282     123.516
  O      110.789     -37.338     121.972
  H      110.448     -37.188     121.075
  H      112.774     -34.072     120.784
  H      112.289     -34.507     122.435
  H      111.187     -34.826     121.062
  H      106.464     -36.811     118.946
  H      107.899     -37.143     119.885
  H      106.367     -37.837     120.356

 3  4  5  6  7  8  9  10  11  12  22  25  29  30  31  32 0
 6-311+G(2d,p)
 ****
 33  36  37 0
 6-311+G(2d,p)
 ****
 1  2  13  14  15  16  17  18  19  20  21  23  24  26 0
 3-21G
 ****
 27  28  34  35  38  39  40  41  42  43  44  45  46  47  48 0
 3-21G
 ****


