%nproc=1
%NoSave
%Mem=1900MB
#P OB98/GEN NMR

erre ene a

0 1
  C      440.916     426.914     372.553
  O      440.608     426.055     371.476
  H      441.774     427.537     372.269
  H      441.177     426.335     373.441
  H      440.065     427.566     372.769
  P      439.444     424.984     371.714
  C      439.194     422.937     373.301
  O      440.079     423.786     372.577
  C      440.003     421.910     374.088
  O      440.860     422.580     375.045
  C      439.154     420.944     374.904
  O      438.598     419.907     374.124
  C      440.191     420.432     375.897
  O      440.958     419.347     375.362
  C      441.070     421.672     376.138
  N      440.788     422.293     377.435
  C      441.119     421.532     378.564
  O      441.626     420.418     378.487
  N      440.830     422.092     379.769
  C      440.186     423.290     379.963
  O      439.890     423.709     381.083
  C      439.842     424.038     378.739
  C      440.146     423.512     377.547
  O      439.240     424.332     370.265
  O      438.171     425.550     372.257
  H      438.407     424.657     369.871
  H      440.322     418.634     375.164
  H      441.054     421.559     380.594
  H      439.333     424.990     378.870
  H      439.881     424.046     376.643
  H      442.129     421.398     376.126
  H      439.709     420.063     376.805
  H      438.379     421.498     375.454
  H      440.646     421.355     373.388
  H      438.541     422.404     372.600
  H      438.575     423.551     373.969
  P      437.376     419.072     374.746
  C      437.305     417.183     376.574
  O      438.045     417.886     375.583
  O      436.790     418.369     373.427
  O      436.406     419.930     375.490
  H      437.480     418.252     372.745
  H      437.926     416.433     377.017
  H      436.453     416.719     376.121
  H      436.979     417.868     377.329

 6  7  8  9  10  11  12  13  14  15  16  27  31  32  33  34  35 0
 6-311+G(2d,p)
 ****
 36  37 0
 6-311+G(2d,p)
 ****
 1  2  3  4  5  17  18  19  20  21  22  23  24  25 0
 3-21G
 ****
 26  28  29  30  38  39  40  41  42  43  44  45 0
 3-21G
 ****


