%nproc=1
%NoSave
%Mem=1900MB
#P OB98/GEN NMR

erre ene a

0 1
  C     -396.446    -220.838      82.691
  O     -396.985    -219.534      82.501
  P     -397.091    -218.553      83.765
  C     -398.159    -216.173      84.205
  O     -398.106    -217.357      83.448
  C     -399.226    -215.232      83.605
  O     -398.666    -214.497      82.484
  C     -400.455    -215.974      83.082
  O     -401.416    -216.192      84.099
  C     -400.939    -215.043      81.982
  O     -401.641    -213.921      82.548
  C     -399.597    -214.583      81.363
  N     -398.979    -215.428      80.320
  C     -399.457    -215.363      79.008
  O     -400.372    -214.632      78.639
  N     -398.815    -216.168      78.093
  C     -397.673    -216.887      78.308
  O     -397.111    -217.543      77.443
  C     -397.132    -216.812      79.675
  C     -397.802    -216.110      80.597
  O     -395.659    -217.845      83.820
  O     -397.422    -219.250      85.058
  H     -402.266    -214.274      83.211
  H     -395.190    -218.088      84.639
  H     -399.192    -216.179      77.155
  H     -396.198    -217.327      79.872
  H     -397.404    -216.044      81.611
  H     -399.688    -213.579      80.944
  H     -401.647    -215.545      81.324
  H     -400.158    -216.923      82.616
  H     -399.524    -214.509      84.377
  H     -397.190    -215.672      84.217
  H     -398.408    -216.408      85.249
  P     -401.585    -217.656      84.736
  C     -402.567    -218.561      86.925
  O     -402.470    -217.447      86.067
  O     -400.334    -218.449      84.914
  O     -402.620    -218.385      83.746
  H     -402.145    -218.927      83.078
  H     -403.053    -218.243      87.862
  H     -401.570    -218.961      87.165
  H     -403.172    -219.344      86.458
  H     -396.444    -221.362      81.758
  H     -397.045    -221.372      83.399
  H     -395.444    -220.760      83.058

 3  4  5  6  7  8  9  10  11  12  13  23  28  29  30  31  32 0
 6-311+G(2d,p)
 ****
 33  34 0
 6-311+G(2d,p)
 ****
 1  2  14  15  16  17  18  19  20  21  22  24  25  26  27 0
 3-21G
 ****
 35  36  37  38  39  40  41  42  43  44  45 0
 3-21G
 ****


