%nproc=1
%NoSave
%Mem=1900MB
#P OB98/GEN NMR

erre ene a

0 1
  C     -117.325     230.054     259.945
  O     -116.259     229.172     259.654
  P     -114.757     229.726     259.755
  C     -114.488     230.342     257.211
  O     -114.094     229.527     258.304
  C     -113.983     229.743     255.895
  O     -114.316     230.651     254.805
  C     -112.462     229.508     255.846
  O     -112.241     228.320     255.068
  C     -111.957     230.733     255.098
  O     -110.685     230.528     254.504
  C     -113.098     230.948     254.096
  N     -113.140     232.303     253.546
  C     -112.530     232.529     252.316
  O     -111.936     231.658     251.672
  N     -112.598     233.816     251.843
  C     -113.135     234.887     252.496
  O     -113.156     236.024     252.031
  C     -113.725     234.602     253.813
  C     -113.709     233.341     254.262
  O     -114.071     228.596     260.653
  O     -114.663     231.111     260.302
  H     -114.415     227.702     260.467
  H     -110.363     231.387     254.169
  H     -112.195     233.993     250.936
  H     -114.155     235.426     254.373
  H     -114.136     233.105     255.233
  H     -113.016     230.220     253.274
  H     -111.874     231.576     255.798
  H     -112.022     229.391     256.838
  H     -114.521     228.802     255.713
  H     -114.064     231.344     257.333
  H     -115.579     230.435     257.203
  P     -111.297     227.173     255.691
  C     -109.269     228.301     254.471
  O     -109.967     227.117     254.807
  O     -112.101     225.862     255.218
  O     -111.120     227.240     257.173
  H     -112.340     225.884     254.277
  H     -108.249     228.041     254.171
  H     -109.222     228.997     255.314
  H     -109.768     228.786     253.626
  H     -118.256     229.538     259.833
  H     -117.295     230.885     259.271
  H     -117.231     230.407     260.951

 3  4  5  6  7  8  9  10  11  12  13  24  28  29  30  31  32 0
 6-311+G(2d,p)
 ****
 33  34 0
 6-311+G(2d,p)
 ****
 1  2  14  15  16  17  18  19  20  21  22  23  25  26  27 0
 3-21G
 ****
 35  36  37  38  39  40  41  42  43  44  45 0
 3-21G
 ****


