%nproc=1
%NoSave
%Mem=1900MB
#P OB98/GEN NMR

erre ene a

0 1
  C      751.140    -545.820     503.868
  O      751.466    -544.452     503.837
  H      750.657    -546.084     502.919
  H      750.441    -546.020     504.684
  H      752.029    -546.441     503.990
  P      752.464    -543.875     504.953
  C      754.185    -542.491     503.613
  O      753.901    -543.715     504.265
  C      755.408    -542.619     502.700
  O      756.549    -543.041     503.496
  C      755.201    -543.691     501.619
  O      755.956    -543.425     500.445
  C      755.731    -544.947     502.289
  O      756.124    -545.957     501.356
  C      756.894    -544.377     503.099
  N      757.549    -549.049     505.051
  C      757.021    -548.685     503.838
  N      756.623    -549.696     503.023
  N      756.887    -547.439     503.455
  C      757.263    -546.538     504.386
  C      757.775    -546.774     505.646
  C      757.961    -548.160     506.046
  O      758.394    -548.540     507.119
  N      758.020    -545.609     506.325
  C      757.667    -544.661     505.476
  N      757.216    -545.174     504.278
  O      752.681    -545.114     505.944
  O      751.979    -542.657     505.692
  H      756.427    -546.733     501.871
  H      752.972    -544.801     506.824
  H      757.667    -550.025     505.284
  H      757.723    -543.594     505.673
  H      757.811    -544.321     502.493
  H      754.947    -545.371     502.914
  H      756.539    -550.639     503.356
  H      754.147    -543.821     501.357
  H      755.964    -549.436     502.273
  H      755.666    -541.643     502.274
  H      754.360    -541.747     504.398
  H      753.314    -542.147     503.044
  P      755.434    -544.014     499.043
  C      754.459    -541.699     498.219
  O      754.282    -543.081     498.455
  O      754.652    -545.352     499.466
  O      756.510    -544.284     498.046
  H      755.101    -546.140     499.100
  H      753.554    -541.286     497.825
  H      755.252    -541.556     497.515
  H      754.705    -541.209     499.138

 6  7  8  9  10  11  12  13  14  15  26  29  33  34 0
 6-311+G(2d,p)
 ****
 36  38  39  40  41 0
 6-311+G(2d,p)
 ****
 1  2  3  4  5  16  17  18  19  20  21  22  23  24  25 0
 3-21G
 ****
 27  28  30  31  32  35  37  42  43  44  45  46  47 0
 3-21G
 ****
 48  49 0
 3-21G
 ****


