%nproc=1
%NoSave
%Mem=1900MB
#P OB98/GEN NMR

erre ene a

0 1
  C     -203.084     539.301     269.415
  O     -202.189     539.195     270.512
  P     -200.594     539.133     270.293
  C     -198.989     537.451     269.155
  O     -200.331     537.772     269.486
  C     -198.956     536.315     268.119
  O     -199.727     536.719     266.960
  C     -197.538     535.949     267.630
  O     -197.529     534.532     267.399
  C     -197.422     536.710     266.323
  O     -196.444     536.164     265.466
  C     -198.862     536.604     265.803
  N     -199.177     537.638     264.818
  C     -198.355     537.724     263.693
  O     -197.381     536.979     263.546
  N     -198.648     538.675     262.734
  C     -199.617     539.514     262.926
  N     -199.899     540.394     261.923
  C     -200.439     539.522     264.163
  C     -200.182     538.552     265.031
  O     -199.784     539.284     271.536
  O     -200.299     540.238     269.183
  H     -196.262     536.804     264.749
  H     -200.187     541.152     269.561
  H     -201.219     540.256     264.284
  H     -200.752     538.470     265.953
  H     -199.041     535.615     265.369
  H     -197.155     537.750     266.526
  H     -196.763     536.204     268.358
  H     -199.450     535.438     268.550
  H     -199.428     540.240     261.037
  H     -198.484     537.114     270.060
  H     -200.806     540.835     261.865
  H     -198.479     538.340     268.775
  P     -196.475     533.634     268.217
  C     -193.892     533.622     268.503
  O     -194.997     534.040     267.736
  O     -196.666     532.194     267.533
  O     -196.698     533.525     269.693
  H     -196.405     531.502     268.165
  H     -192.972     533.980     268.022
  H     -193.847     532.528     268.556
  H     -193.944     534.040     269.520
  H     -204.091     539.327     269.777
  H     -202.959     538.457     268.770
  H     -202.877     540.199     268.871

 3  4  5  6  7  8  9  10  11  12  13  23  27  28  29  30  32 0
 6-311+G(2d,p)
 ****
 34  35 0
 6-311+G(2d,p)
 ****
 1  2  14  15  16  17  18  19  20  21  22  24  25  26 0
 3-21G
 ****
 31  33  36  37  38  39  40  41  42  43  44  45  46 0
 3-21G
 ****


