%nproc=1
%NoSave
%Mem=1900MB
#P OB98/GEN NMR

erre ene a

0 1
  C       65.643     233.320      17.719
  O       65.667     231.999      17.213
  H       64.787     233.846      17.287
  H       66.562     233.846      17.440
  H       65.538     233.308      18.807
  P       66.848     231.053      17.744
  C       66.009     230.053      20.001
  O       66.138     229.895      18.596
  C       66.241     228.713      20.712
  O       66.256     228.946      22.153
  C       65.144     227.669      20.442
  O       65.740     226.366      20.550
  C       64.207     227.897      21.619
  O       63.294     226.832      21.754
  C       65.235     228.098      22.728
  N       64.899     227.725      27.816
  C       65.579     226.998      26.904
  N       65.629     227.164      25.569
  C       64.895     228.226      25.191
  C       64.156     229.068      26.008
  C       64.171     228.784      27.384
  N       63.474     229.520      28.313
  N       63.531     230.049      25.255
  C       63.888     229.802      24.010
  N       64.704     228.706      23.924
  O       67.570     231.954      18.852
  O       67.802     230.572      16.704
  H       63.753     225.969      21.690
  H       68.336     232.413      18.460
  H       66.154     226.165      27.303
  H       63.580     230.369      23.143
  H       65.712     227.154      23.016
  H       63.609     228.803      21.470
  H       64.673     227.778      19.463
  H       67.232     228.332      20.444
  H       65.001     230.421      20.219
  H       66.745     230.783      20.356
  H       63.525     229.239      29.279
  H       62.913     230.300      28.003
  P       65.995     225.510      19.210
  C       68.137     226.394      17.990
  O       67.573     225.477      18.918
  O       65.470     226.510      18.072
  O       65.286     224.200      19.133
  H       65.158     225.994      17.305
  H       69.192     226.229      17.922
  H       67.953     227.395      18.321
  H       67.690     226.249      17.029

 6  7  8  9  10  11  12  13  14  15  25  28  32  33  34  35 0
 6-311+G(2d,p)
 ****
 36  37  40 0
 6-311+G(2d,p)
 ****
 1  2  3  4  5  16  17  18  19  20  21  22  23  24 0
 3-21G
 ****
 26  27  29  30  31  38  39 41  42  43  44  45  46  47  48 0
 3-21G
 ****


