%nproc=1
%NoSave
%Mem=1900MB
#P OB98/GEN NMR

erre ene a

0 1
  C      520.050    -117.087     147.315
  O      521.452    -117.286     147.095
  P      521.900    -118.342     145.974
  C      520.497    -119.181     143.946
  O      521.048    -118.073     144.645
  C      519.959    -118.747     142.578
  O      518.854    -117.831     142.699
  C      520.991    -118.025     141.718
  O      521.847    -118.942     141.055
  C      520.093    -117.315     140.720
  O      519.680    -118.246     139.691
  C      518.891    -116.912     141.583
  N      516.192    -112.928     143.339
  C      515.817    -114.139     142.870
  N      516.585    -115.138     142.407
  C      517.889    -114.799     142.464
  C      518.427    -113.600     142.917
  C      517.514    -112.635     143.372
  N      517.910    -111.403     143.854
  N      519.801    -113.611     142.819
  C      520.089    -114.805     142.331
  N      518.969    -115.555     142.091
  O      521.294    -119.721     146.522
  O      523.375    -118.427     145.785
  H      518.949    -117.823     139.202
  H      521.889    -120.459     146.289
  H      514.738    -114.328     142.874
  H      521.095    -115.172     142.137
  H      517.938    -117.007     141.044
  H      520.596    -116.487     140.213
  H      521.552    -117.285     142.313
  H      519.606    -119.646     142.052
  H      519.700    -119.638     144.536
  H      517.192    -110.774     144.182
  H      518.893    -111.192     143.898
  H      521.274    -119.954     143.836
  P      523.412    -118.888     141.422
  C      524.558    -119.492     143.684
  O      523.583    -119.832     142.715
  O      523.590    -117.404     141.999
  O      524.323    -119.171     140.280
  H      524.502    -117.087     141.820
  H      524.338    -120.030     144.604
  H      524.548    -118.415     143.891
  H      525.550    -119.790     143.325
  H      519.910    -116.359     148.087
  H      519.601    -118.012     147.611
  H      519.593    -116.742     146.411

 3  4  5  6  7  8  9  10  11  12  22  25  29  30  31  32 0
 6-311+G(2d,p)
 ****
 33  36  37 0
 6-311+G(2d,p)
 ****
 1  2  13  14  15  16  17  18  19  20  21  23  24  26 0
 3-21G
 ****
 27  28  34  35  38  39  40  41  42  43  44  45  46  47  48 0
 3-21G
 ****


