%nproc=1
%NoSave
%Mem=1900MB
#P OB98/GEN NMR

erre ene a

0 1
  C       20.954     261.824    -271.896
  O       20.317     261.233    -273.004
  P       19.048     260.277    -272.782
  C       19.187     257.868    -273.660
  O       19.588     258.777    -272.637
  C       19.839     258.240    -274.989
  O       21.254     258.459    -274.814
  C       19.720     257.171    -276.065
  O       18.419     257.158    -276.622
  C       20.823     257.590    -277.033
  O       20.365     258.647    -277.891
  C       21.896     258.117    -276.064
  N       25.946     255.802    -278.143
  C       24.988     256.591    -278.678
  N       23.911     257.135    -278.062
  C       23.876     256.783    -276.772
  C       24.762     255.950    -276.097
  C       25.853     255.462    -276.833
  N       26.868     254.712    -276.286
  N       24.362     255.786    -274.778
  C       23.258     256.498    -274.665
  N       22.961     257.160    -275.825
  O       17.928     260.462    -273.752
  O       18.566     260.629    -271.293
  H       19.766     258.248    -278.547
  H       17.649     260.971    -271.319
  H       25.097     256.823    -279.732
  H       22.654     256.575    -273.770
  H       22.366     259.035    -276.436
  H       21.162     256.772    -277.667
  H       19.964     256.185    -275.641
  H       19.398     259.185    -275.335
  H       18.097     257.915    -273.754
  H       27.678     254.546    -276.870
  H       26.983     254.708    -275.273
  H       19.470     256.848    -273.373
  P       17.851     255.819    -277.300
  C       17.605     256.167    -279.823
  O       18.461     255.744    -278.779
  O       16.373     255.623    -277.195
  O       18.637     254.654    -276.528
  H       18.069     253.864    -276.463
  H       16.877     255.372    -280.047
  H       18.209     256.355    -280.717
  H       17.071     257.077    -279.556
  H       21.773     262.424    -272.234
  H       21.318     261.058    -271.243
  H       20.255     262.439    -271.369

 3  4  5  6  7  8  9  10  11  12  22  25  29  30  31  32 0
 6-311+G(2d,p)
 ****
 33  36  37 0
 6-311+G(2d,p)
 ****
 1  2  13  14  15  16  17  18  19  20  21  23  24  26 0
 3-21G
 ****
 27  28  34  35  38  39  40  41  42  43  44  45  46  47  48 0
 3-21G
 ****


