%nproc=1
%NoSave
%Mem=1900MB
#P OB98/GEN NMR

erre ene a

0 1
  C     -863.875     -70.877    -646.161
  O     -862.765     -70.387    -645.415
  P     -861.786     -69.268    -646.034
  C     -859.456     -69.355    -647.149
  O     -860.626     -70.074    -646.793
  C     -858.190     -70.141    -646.752
  O     -858.079     -70.133    -645.305
  C     -858.216     -71.629    -647.178
  O     -856.895     -71.992    -647.511
  C     -858.693     -72.343    -645.937
  O     -858.325     -73.717    -645.935
  C     -858.025     -71.496    -644.855
  N     -858.641     -71.639    -643.549
  C     -857.943     -71.142    -642.440
  O     -856.836     -70.615    -642.567
  N     -858.509     -71.264    -641.191
  C     -859.644     -71.895    -641.048
  N     -860.200     -71.923    -639.792
  C     -860.355     -72.521    -642.181
  C     -859.814     -72.349    -643.372
  O     -861.302     -68.246    -645.036
  O     -862.628     -68.624    -647.249
  H     -857.346     -73.780    -645.908
  H     -863.240     -67.923    -646.964
  H     -861.284     -73.067    -642.000
  H     -860.281     -72.764    -644.263
  H     -856.941     -71.751    -644.780
  H     -859.797     -72.287    -645.854
  H     -858.869     -71.794    -648.069
  H     -857.324     -69.634    -647.169
  H     -859.768     -71.321    -639.105
  H     -859.451     -68.396    -646.604
  H     -861.200     -72.095    -639.667
  H     -859.456     -69.118    -648.218
  P     -856.645     -73.163    -648.605
  C     -854.872     -75.047    -648.905
  O     -855.500     -74.122    -648.027
  O     -855.867     -72.363    -649.772
  O     -857.851     -73.821    -649.163
  H     -856.017     -72.832    -650.610
  H     -854.117     -75.622    -648.332
  H     -854.378     -74.539    -649.722
  H     -855.628     -75.753    -649.294
  H     -864.399     -71.609    -645.582
  H     -863.526     -71.323    -647.069
  H     -864.535     -70.067    -646.393

 3  4  5  6  7  8  9  10  11  12  13  23  27  28  29  30  32 0
 6-311+G(2d,p)
 ****
 34  35 0
 6-311+G(2d,p)
 ****
 1  2  14  15  16  17  18  19  20  21  22  24  25  26 0
 3-21G
 ****
 31  33  36  37  38  39  40  41  42  43  44  45  46 0
 3-21G
 ****


