%nproc=1
%NoSave
%Mem=1900MB
#P OB98/GEN NMR

erre ene a

0 1
  C      -86.036      31.687     468.940
  O      -85.956      30.427     468.276
  P      -87.294      29.818     467.635
  C      -86.419      27.327     467.466
  O      -86.953      28.476     466.841
  C      -85.438      26.641     466.496
  O      -86.139      26.140     465.336
  C      -84.340      27.571     465.986
  O      -83.231      27.621     466.867
  C      -84.015      26.963     464.636
  O      -83.183      25.801     464.798
  C      -85.420      26.560     464.144
  N      -86.231      27.579     463.435
  C      -86.158      27.683     462.051
  O      -85.447      26.976     461.340
  N      -86.954      28.639     461.476
  C      -87.922      29.369     462.107
  O      -88.647      30.171     461.530
  C      -88.062      29.112     463.544
  C      -87.223      28.259     464.130
  O      -87.673      30.855     466.483
  O      -88.416      29.628     468.610
  H      -82.326      26.106     465.147
  H      -88.522      31.294     466.684
  H      -86.859      28.777     460.483
  H      -88.848      29.634     464.073
  H      -87.325      28.063     465.198
  H      -85.363      25.685     463.475
  H      -83.449      27.656     464.016
  H      -84.746      28.574     465.812
  H      -84.985      25.783     467.015
  H      -87.210      26.629     467.744
  H      -85.900      27.614     468.384
  P      -82.564      29.032     467.227
  C      -80.523      27.547     467.696
  O      -81.262      28.677     468.107
  O      -83.473      30.060     467.808
  O      -81.921      29.511     465.834
  H      -82.528      30.121     465.364
  H      -79.592      27.509     468.269
  H      -80.286      27.605     466.633
  H      -81.096      26.635     467.900
  H      -85.069      31.957     469.311
  H      -86.724      31.617     469.756
  H      -86.374      32.432     468.251

 3  4  5  6  7  8  9  10  11  12  13  23  28  29  30  31  32 0
 6-311+G(2d,p)
 ****
 33  34 0
 6-311+G(2d,p)
 ****
 1  2  14  15  16  17  18  19  20  21  22  24  25  26  27 0
 3-21G
 ****
 35  36  37  38  39  40  41  42  43  44  45 0
 3-21G
 ****


