%nproc=1
%NoSave
%Mem=1900MB
#P OB98/GEN NMR

erre ene a

0 1
  C      610.270    -249.912     201.561
  O      611.184    -249.998     200.482
  H      610.259    -248.882     201.926
  H      610.585    -250.576     202.372
  H      609.267    -250.184     201.227
  P      611.337    -251.436     199.789
  C      610.347    -250.651     197.509
  O      610.219    -251.498     198.642
  C      609.143    -250.817     196.575
  O      607.921    -250.690     197.364
  C      609.063    -249.757     195.466
  O      608.389    -250.349     194.338
  C      608.165    -248.708     196.098
  O      607.693    -247.796     195.136
  C      607.145    -249.624     196.772
  N      603.418    -246.219     197.617
  C      603.944    -246.716     196.470
  N      604.926    -247.626     196.326
  C      605.363    -248.054     197.526
  C      604.918    -247.649     198.777
  C      603.899    -246.680     198.794
  N      603.371    -246.170     199.958
  N      605.608    -248.313     199.778
  C      606.452    -249.103     199.138
  N      606.343    -248.975     197.782
  O      610.792    -252.443     200.909
  O      612.717    -251.791     199.343
  H      607.342    -248.269     194.348
  H      611.539    -252.798     201.429
  H      603.520    -246.321     195.554
  H      607.163    -249.773     199.609
  H      606.458    -250.075     196.043
  H      608.714    -248.126     196.843
  H      610.041    -249.386     195.149
  H      609.145    -251.834     196.163
  H      611.267    -250.921     196.977
  H      610.411    -249.609     197.839
  H      602.653    -245.464     199.888
  H      603.730    -246.490     200.845
  P      609.141    -251.495     193.491
  C      607.399    -253.420     193.838
  O      608.717    -252.931     194.070
  O      610.650    -251.359     194.018
  O      609.080    -251.342     192.002
  H      611.267    -251.653     193.319
  H      607.291    -254.383     194.291
  H      607.229    -253.500     192.785
  H      606.688    -252.744     194.264

 6  7  8  9  10  11  12  13  14  15  25  28  32  33  34  35 0
 6-311+G(2d,p)
 ****
 36  37  40 0
 6-311+G(2d,p)
 ****
 1  2  3  4  5  16  17  18  19  20  21  22  23  24 0
 3-21G
 ****
 26  27  29  30  31  38  39 41  42  43  44  45  46  47  48 0
 3-21G
 ****


