%nproc=1
%NoSave
%Mem=1900MB
#P OB98/GEN NMR

erre ene a

0 1
  C       97.010     -14.652     141.419
  O       97.103     -14.443     140.024
  H       97.946     -14.335     141.888
  H       96.852     -15.714     141.631
  H       96.189     -14.063     141.840
  P       95.788     -14.735     139.153
  C       94.906     -16.791     137.815
  O       95.850     -16.290     138.751
  C       95.030     -18.314     137.715
  O       96.347     -18.640     137.193
  C       94.887     -19.024     139.071
  O       94.198     -20.263     138.876
  C       96.327     -19.291     139.477
  O       96.471     -20.367     140.396
  C       96.967     -19.564     138.114
  N       98.421     -19.385     138.128
  C       99.208     -20.531     138.153
  O       98.776     -21.681     138.089
  N      100.561     -20.318     138.262
  C      101.180     -19.105     138.368
  O      102.393     -18.984     138.485
  C      100.296     -17.930     138.343
  C       98.977     -18.122     138.229
  O       96.086     -13.989     137.770
  O       94.496     -14.311     139.769
  H       95.756     -13.069     137.798
  H       96.011     -21.146     140.021
  H      101.148     -21.139     138.279
  H      100.750     -16.955     138.433
  H       98.294     -17.278     138.223
  H       96.724     -20.578     137.772
  H       96.761     -18.393     139.938
  H       94.361     -18.419     139.813
  H       94.292     -18.686     136.994
  H       95.106     -16.350     136.832
  H       93.896     -16.511     138.135
  P       92.750     -20.418     139.558
  C       91.936     -21.019     141.972
  O       93.026     -20.712     141.115
  O       92.267     -21.822     138.966
  O       91.845     -19.264     139.270
  H       92.987     -22.471     138.873
  H       92.299     -21.185     142.965
  H       91.443     -21.901     141.620
  H       91.245     -20.202     141.976

 6  7  8  9  10  11  12  13  14  15  16  27  31  32  33  34  35 0
 6-311+G(2d,p)
 ****
 36  37 0
 6-311+G(2d,p)
 ****
 1  2  3  4  5  17  18  19  20  21  22  23  24  25 0
 3-21G
 ****
 26  28  29  30  38  39  40  41  42  43  44  45 0
 3-21G
 ****


