%nproc=1
%NoSave
%Mem=1900MB
#P OB98/GEN NMR

erre ene a

0 1
  C       63.379      43.263     -95.387
  O       64.700      42.902     -95.727
  H       62.719      42.985     -96.211
  H       63.322      44.345     -95.240
  H       63.045      42.752     -94.480
  P       65.789      42.783     -94.561
  C       66.195      45.330     -94.607
  O       66.783      44.038     -94.690
  C       67.133      46.417     -95.133
  O       66.620      47.725     -94.795
  C       68.526      46.335     -94.509
  O       69.414      45.422     -95.126
  C       69.021      47.770     -94.663
  O       69.609      47.973     -95.959
  C       67.736      48.589     -94.522
  N       68.747      52.563     -91.476
  C       69.171      52.330     -92.769
  N       70.017      53.243     -93.294
  N       68.809      51.287     -93.469
  C       68.039      50.412     -92.781
  C       67.568      50.528     -91.492
  C       67.929      51.715     -90.744
  O       67.586      51.966     -89.593
  N       66.808      49.440     -91.134
  C       66.883      48.637     -92.176
  N       67.598      49.194     -93.210
  O       66.715      41.561     -95.035
  O       65.237      42.540     -93.190
  H       70.406      47.418     -96.025
  H       67.127      41.138     -94.261
  H       69.035      53.397     -90.995
  H       66.420      47.658     -92.243
  H       67.697      49.403     -95.257
  H       69.792      48.014     -93.926
  H       70.413      53.997     -92.755
  H       68.452      46.111     -93.440
  H       70.552      52.977     -94.123
  H       67.176      46.359     -96.227
  H       65.972      45.507     -93.553
  H       65.245      45.350     -95.148
  P       69.911      44.125     -94.331
  C       71.624      45.650     -93.101
  O       71.386      44.443     -93.792
  O       70.153      43.063     -95.502
  O       68.959      43.614     -93.305
  H       69.373      42.484     -95.598
  H       72.654      45.700     -92.815
  H       71.008      45.688     -92.227
  H       71.390      46.478     -93.738

 6  7  8  9  10  11  12  13  14  15  26  29  33  34 0
 6-311+G(2d,p)
 ****
 36  38  39  40  41 0
 6-311+G(2d,p)
 ****
 1  2  3  4  5  16  17  18  19  20  21  22  23  24  25 0
 3-21G
 ****
 27  28  30  31  32  35  37  42  43  44  45  46  47 0
 3-21G
 ****
 48  49 0
 3-21G
 ****


