%nproc=1
%NoSave
%Mem=1900MB
#P OB98/GEN NMR

erre ene a

0 1
  C     -593.070    -959.699    1437.818
  O     -592.240    -960.843    1437.776
  H     -592.487    -958.843    1438.164
  H     -593.905    -959.851    1438.498
  H     -593.443    -959.478    1436.808
  P     -592.892    -962.258    1437.405
  C     -591.100    -963.174    1435.785
  O     -591.663    -963.251    1437.076
  C     -589.888    -964.114    1435.662
  O     -588.744    -963.512    1436.361
  C     -590.108    -965.514    1436.306
  O     -589.323    -966.456    1435.580
  C     -589.551    -965.299    1437.703
  O     -589.369    -966.526    1438.372
  C     -588.318    -964.453    1437.381
  N     -587.774    -963.783    1438.556
  C     -587.116    -964.591    1439.471
  O     -587.018    -965.818    1439.294
  N     -586.592    -964.004    1440.606
  C     -586.758    -962.742    1440.824
  N     -586.253    -962.233    1441.967
  C     -587.527    -961.869    1439.886
  C     -587.985    -962.445    1438.775
  O     -593.974    -962.219    1436.365
  O     -593.446    -962.817    1438.808
  H     -590.223    -967.007    1438.466
  H     -594.417    -962.712    1438.836
  H     -587.658    -960.808    1440.127
  H     -588.550    -961.889    1438.039
  H     -587.523    -965.086    1436.944
  H     -590.252    -964.715    1438.321
  H     -591.173    -965.812    1436.300
  H     -589.607    -964.216    1434.605
  H     -585.754    -962.858    1442.596
  H     -590.763    -962.136    1435.626
  H     -586.359    -961.253    1442.261
  H     -591.837    -963.437    1435.020
  P     -589.852    -967.919    1435.186
  C     -588.589    -968.295    1432.947
  O     -588.738    -968.687    1434.317
  O     -591.225    -967.937    1434.550
  O     -589.874    -968.744    1436.567
  H     -590.590    -969.395    1436.559
  H     -587.820    -968.882    1432.490
  H     -588.324    -967.259    1432.899
  H     -589.512    -968.451    1432.429

 6  7  8  9  10  11  12  13  14  15  16  26  30  31  32  33  35 0
 6-311+G(2d,p)
 ****
 37  38 0
 6-311+G(2d,p)
 ****
 1  2  3  4  5  17  18  19  20  21  22  23  24  25 0
 3-21G
 ****
 27  28  29  34  36  39  40  41  42  43  44  45  46 0
 3-21G
 ****


