%nproc=1
%NoSave
%Mem=1900MB
#P OB98/GEN NMR

erre ene a

0 1
  C     -205.101     -79.197      59.823
  O     -204.914     -80.283      60.737
  P     -203.631     -80.328      61.703
  C     -203.894     -78.869      63.793
  O     -204.120     -80.159      63.227
  C     -204.717     -78.609      65.062
  O     -206.133     -78.528      64.756
  C     -204.555     -79.664      66.164
  O     -204.677     -78.956      67.404
  C     -205.756     -80.561      65.932
  O     -206.070     -81.362      67.065
  C     -206.819     -79.530      65.531
  N     -207.925     -80.129      64.790
  C     -208.727     -81.043      65.478
  O     -208.458     -81.358      66.639
  N     -209.789     -81.619      64.821
  C     -209.970     -81.374      63.559
  N     -211.023     -81.990      62.953
  C     -209.097     -80.483      62.770
  C     -208.110     -79.892      63.445
  O     -202.516     -79.419      61.302
  O     -203.158     -81.861      61.641
  H     -205.286     -81.913      67.278
  H     -202.191     -81.907      61.772
  H     -209.269     -80.333      61.712
  H     -207.420     -79.214      62.959
  H     -207.230     -79.032      66.424
  H     -205.553     -81.240      65.089
  H     -203.608     -80.201      66.114
  H     -204.423     -77.624      65.446
  H     -211.583     -82.615      63.522
  H     -204.148     -78.113      63.041
  H     -211.184     -81.963      61.956
  H     -202.826     -78.761      64.013
  P     -203.446     -78.797      68.418
  C     -202.373     -76.732      67.350
  O     -203.086     -77.236      68.465
  O     -202.287     -79.699      68.142
  O     -204.072     -79.076      69.869
  H     -203.346     -79.275      70.495
  H     -202.372     -75.640      67.390
  H     -202.840     -77.052      66.410
  H     -201.339     -77.091      67.375
  H     -206.006     -79.347      59.272
  H     -204.274     -79.154      59.146
  H     -205.163     -78.279      60.368

 3  4  5  6  7  8  9  10  11  12  13  23  27  28  29  30  32 0
 6-311+G(2d,p)
 ****
 34  35 0
 6-311+G(2d,p)
 ****
 1  2  14  15  16  17  18  19  20  21  22  24  25  26 0
 3-21G
 ****
 31  33  36  37  38  39  40  41  42  43  44  45  46 0
 3-21G
 ****


