%nproc=1
%NoSave
%Mem=1900MB
#P OB98/GEN NMR

erre ene a

0 1
  C      149.119     102.991    -103.234
  O      149.921     103.793    -102.393
  P      151.167     103.225    -101.567
  C      152.892     105.156    -101.798
  O      152.512     103.845    -102.198
  C      154.232     105.603    -102.401
  O      154.111     105.680    -103.837
  C      154.582     107.017    -101.922
  O      155.213     107.208    -100.671
  C      155.289     107.672    -103.103
  O      156.712     107.633    -102.979
  C      154.832     106.833    -104.299
  N      154.563     108.985    -108.885
  C      155.494     108.084    -108.400
  N      156.586     107.887    -109.170
  N      155.369     107.460    -107.256
  C      154.273     107.836    -106.553
  C      153.275     108.702    -106.937
  C      153.403     109.352    -108.220
  O      152.645     110.219    -108.651
  N      152.354     108.896    -105.937
  C      152.815     108.177    -104.933
  N      153.998     107.547    -105.246
  O      151.139     101.771    -101.224
  O      151.031     104.051    -100.186
  H      156.959     106.750    -102.644
  H      151.334     103.466     -99.465
  H      154.752     109.492    -109.741
  H      152.352     108.107    -103.954
  H      155.698     106.455    -104.859
  H      155.014     108.731    -103.182
  H      156.783     108.456    -109.981
  H      153.633     107.562    -101.826
  H      157.364     107.370    -108.772
  H      155.018     104.865    -102.208
  H      152.938     105.164    -100.704
  H      152.113     105.868    -102.091
  P      154.802     108.281     -99.556
  C      155.453     106.991     -97.443
  O      154.382     107.495     -98.225
  O      153.408     108.878    -100.073
  O      155.793     109.383     -99.351
  H      153.256     109.755     -99.676
  H      155.066     106.236     -96.755
  H      155.897     107.810     -96.863
  H      156.222     106.537     -98.078
  H      148.352     103.593    -103.675
  H      148.671     102.208    -102.659
  H      149.726     102.565    -104.005

 3  4  5  6  7  8  9  10  11  12  23  26  30  31 0
 6-311+G(2d,p)
 ****
 33  35  36  37  38 0
 6-311+G(2d,p)
 ****
 1  2  13  14  15  16  17  18  19  20  21  22  24  25 0
 3-21G
 ****
 27  28  29  32  34  39  40  41  42  43  44  45  46  47  48  49 0
 3-21G
 ****


