%nproc=1
%NoSave
%Mem=1900MB
#P OB98/GEN NMR

erre ene a

0 1
  C       27.598      39.517     144.010
  O       27.460      39.775     145.396
  P       28.308      38.958     146.491
  C       26.253      37.443     146.903
  O       27.627      37.509     146.561
  C       25.782      35.986     146.939
  O       25.833      35.448     145.592
  C       26.631      35.072     147.836
  O       25.743      34.106     148.418
  C       27.569      34.405     146.848
  O       28.104      33.184     147.336
  C       26.652      34.259     145.628
  N       27.395      34.096     144.384
  C       27.190      32.922     143.656
  O       26.427      32.047     144.064
  N       27.861      32.758     142.469
  C       28.723      33.649     142.085
  N       29.319      33.472     140.872
  C       29.050      34.850     142.878
  C       28.340      35.017     143.990
  O       28.455      39.642     147.806
  O       29.693      38.640     145.760
  H       28.695      32.813     146.652
  H       30.349      39.377     145.835
  H       29.798      35.549     142.531
  H       28.492      35.879     144.622
  H       25.969      33.414     145.766
  H       28.408      35.077     146.633
  H       27.143      35.617     148.633
  H       24.734      35.971     147.261
  H       28.943      32.735     140.285
  H       25.680      37.978     146.141
  H       29.732      34.253     140.375
  H       26.089      37.935     147.867
  P       26.100      33.523     149.870
  C       27.174      31.346     148.953
  O       27.343      32.524     149.712
  O       24.883      32.504     150.116
  O       26.166      34.514     150.985
  H       24.751      32.390     151.078
  H       28.121      30.794     148.947
  H       26.909      31.589     147.920
  H       26.402      30.712     149.396
  H       26.949      40.166     143.460
  H       27.338      38.499     143.809
  H       28.611      39.692     143.714

 3  4  5  6  7  8  9  10  11  12  13  23  27  28  29  30  32 0
 6-311+G(2d,p)
 ****
 34  35 0
 6-311+G(2d,p)
 ****
 1  2  14  15  16  17  18  19  20  21  22  24  25  26 0
 3-21G
 ****
 31  33  36  37  38  39  40  41  42  43  44  45  46 0
 3-21G
 ****


