%nproc=1
%NoSave
%Mem=1900MB
#P OB98/GEN NMR

erre ene a

0 1
  C      -48.090      -4.968     102.718
  O      -46.864      -4.843     103.413
  H      -48.651      -4.036     102.830
  H      -48.686      -5.788     103.123
  H      -47.900      -5.136     101.654
  P      -45.983      -6.166     103.635
  C      -46.080      -8.171     105.255
  O      -46.658      -6.922     104.885
  C      -46.884      -8.846     106.366
  O      -48.198      -9.214     105.895
  C      -46.276     -10.144     106.875
  O      -45.052      -9.996     107.556
  C      -47.456     -10.783     107.592
  O      -47.627     -10.276     108.915
  C      -48.637     -10.334     106.696
  N      -49.148     -11.421     105.868
  C      -50.372     -11.955     106.250
  O      -51.003     -11.573     107.237
  N      -50.845     -12.979     105.476
  C      -50.202     -13.538     104.410
  O      -50.671     -14.471     103.767
  C      -48.892     -12.957     104.075
  C      -48.431     -11.939     104.807
  O      -44.507      -5.945     103.785
  O      -46.372      -7.099     102.396
  H      -46.836     -10.539     109.425
  H      -45.721      -7.835     102.284
  H      -51.739     -13.371     105.728
  H      -48.349     -13.384     103.244
  H      -47.467     -11.492     104.579
  H      -49.465      -9.965     107.317
  H      -47.352     -11.867     107.671
  H      -46.059     -10.783     106.009
  H      -47.013      -8.123     107.179
  H      -45.063      -7.976     105.614
  H      -46.026      -8.824     104.377
  P      -44.227     -11.212     108.174
  C      -44.442     -12.803     110.237
  O      -45.034     -11.790     109.432
  O      -42.751     -11.020     108.311
  O      -44.467     -12.364     107.064
  H      -43.652     -12.902     107.028
  H      -45.114     -13.069     111.026
  H      -43.528     -12.437     110.655
  H      -44.239     -13.664     109.635

 6  7  8  9  10  11  12  13  14  15  16  26  31  32  33  34  35 0
 6-311+G(2d,p)
 ****
 36  37 0
 6-311+G(2d,p)
 ****
 1  2  3  4  5  17  18  19  20  21  22  23  24  25 0
 3-21G
 ****
 27  28  29  30  38  39  40  41  42  43  44  45 0
 3-21G
 ****


