%nproc=1
%NoSave
%Mem=1900MB
#P OB98/GEN NMR

erre ene a

0 1
  C      325.457    -894.715     832.096
  O      326.081    -894.650     830.830
  P      326.794    -893.257     830.427
  C      328.620    -892.612     828.648
  O      327.885    -893.626     829.307
  C      329.638    -893.245     827.668
  O      330.610    -894.008     828.414
  C      329.015    -894.221     826.680
  O      328.351    -893.559     825.622
  C      330.262    -895.017     826.259
  O      331.015    -894.278     825.278
  C      331.047    -895.108     827.583
  N      330.910    -896.381     828.270
  C      331.701    -897.430     827.835
  O      332.500    -897.300     826.893
  N      331.550    -898.630     828.483
  C      330.638    -898.900     829.466
  O      330.524    -900.000     829.974
  C      329.799    -897.765     829.868
  C      329.956    -896.585     829.260
  O      327.648    -892.969     831.737
  O      325.817    -892.181     830.056
  H      327.884    -893.796     832.211
  H      330.421    -894.181     824.513
  H      332.135    -899.400     828.169
  H      329.054    -897.953     830.650
  H      329.351    -895.742     829.565
  H      332.112    -894.941     827.391
  H      330.008    -895.995     825.831
  H      328.320    -894.906     827.195
  H      330.151    -892.444     827.151
  H      329.163    -892.008     829.385
  H      327.926    -891.957     828.101
  P      327.474    -894.479     824.624
  C      326.629    -893.951     822.218
  O      326.860    -893.489     823.542
  O      326.243    -894.853     825.572
  O      328.233    -895.652     824.091
  H      325.910    -894.104     826.098
  H      325.897    -893.291     821.737
  H      326.240    -894.983     822.209
  H      327.559    -893.913     821.649
  H      325.028    -895.686     832.233
  H      324.687    -893.974     832.153
  H      326.183    -894.535     832.861

 3  4  5  6  7  8  9  10  11  12  13  24  28  29  30  31  32 0
 6-311+G(2d,p)
 ****
 33  34 0
 6-311+G(2d,p)
 ****
 1  2  14  15  16  17  18  19  20  21  22  23  25  26  27 0
 3-21G
 ****
 35  36  37  38  39  40  41  42  43  44  45 0
 3-21G
 ****


