%nproc=1
%NoSave
%Mem=1900MB
#P OB98/GEN NMR

erre ene a

0 1
  C     -615.329     260.743      91.900
  O     -615.843     260.037      90.765
  P     -617.417     259.722      90.739
  C     -617.952     260.889      88.482
  O     -618.156     260.866      89.885
  C     -618.561     262.150      87.850
  O     -619.987     262.230      88.126
  C     -617.940     263.455      88.360
  O     -618.006     264.426      87.312
  C     -618.891     263.867      89.464
  O     -618.757     265.250      89.792
  C     -620.226     263.457      88.840
  N     -623.530     265.884      91.778
  C     -622.578     266.379      90.911
  N     -622.525     267.724      90.778
  N     -621.753     265.631      90.227
  C     -621.952     264.306      90.434
  C     -622.852     263.690      91.272
  C     -623.740     264.536      92.039
  O     -624.591     264.149      92.835
  N     -622.728     262.323      91.224
  C     -621.750     262.115      90.366
  N     -621.271     263.282      89.831
  O     -617.868     260.030      92.244
  O     -617.743     258.319      90.350
  H     -619.093     265.766      89.030
  H     -618.067     259.193      92.703
  H     -624.131     266.510      92.287
  H     -621.349     261.152      90.094
  H     -620.591     264.204      88.121
  H     -618.689     263.274      90.372
  H     -623.163     268.358      91.233
  H     -616.903     263.366      88.704
  H     -621.864     268.113      90.121
  H     -618.444     262.086      86.759
  H     -618.394     260.004      88.021
  H     -616.877     260.823      88.281
  P     -616.735     264.537      86.340
  C     -617.584     263.163      84.311
  O     -616.738     263.211      85.442
  O     -615.491     264.323      87.321
  O     -616.641     265.824      85.589
  H     -614.696     264.743      86.960
  H     -616.983     263.309      83.409
  H     -618.370     263.919      84.348
  H     -618.053     262.172      84.267
  H     -614.274     260.883      91.785
  H     -615.519     260.177      92.788
  H     -615.810     261.696      91.975

 3  4  5  6  7  8  9  10  11  12  23  26  30  31 0
 6-311+G(2d,p)
 ****
 33  35  36  37  38 0
 6-311+G(2d,p)
 ****
 1  2  13  14  15  16  17  18  19  20  21  22  24  25 0
 3-21G
 ****
 27  28  29  32  34  39  40  41  42  43  44  45  46  47  48  49 0
 3-21G
 ****


