%nproc=1
%NoSave
%Mem=1900MB
#P OB98/GEN NMR

erre ene a

0 1
  C      660.179     358.685     878.701
  O      658.920     358.512     879.342
  P      658.801     357.329     880.425
  C      659.865     358.824     882.263
  O      659.955     357.620     881.508
  C      660.385     358.606     883.676
  O      659.549     357.651     884.357
  C      661.797     358.045     883.758
  O      662.779     359.049     883.586
  C      661.810     357.491     885.175
  O      662.080     358.551     886.105
  C      660.369     356.978     885.344
  N      659.758     352.526     887.679
  C      659.840     353.800     888.210
  N      659.712     353.903     889.548
  N      660.029     354.878     887.485
  C      660.097     354.622     886.161
  C      660.037     353.408     885.517
  C      659.876     352.219     886.328
  O      659.865     351.064     885.922
  N      660.132     353.553     884.155
  C      660.215     354.860     883.973
  N      660.227     355.547     885.164
  O      659.345     356.054     879.641
  O      657.430     357.108     880.970
  H      661.353     359.199     886.031
  H      658.971     355.237     880.022
  H      659.593     351.737     888.274
  H      660.269     355.341     883.005
  H      659.970     357.246     886.336
  H      662.582     356.728     885.328
  H      659.440     353.135     890.140
  H      661.931     357.224     883.043
  H      659.725     354.831     889.954
  H      660.322     359.563     884.218
  H      658.822     359.150     882.315
  H      660.456     359.606     881.754
  P      664.196     358.572     883.000
  C      663.407     357.950     880.600
  O      663.842     357.491     881.868
  O      664.821     357.706     884.186
  O      665.097     359.683     882.584
  H      665.799     357.701     884.133
  H      663.923     358.868     880.305
  H      662.325     358.133     880.632
  H      663.614     357.178     879.857
  H      660.119     359.500     878.010
  H      660.437     357.790     878.175
  H      660.928     358.895     879.436

 3  4  5  6  7  8  9  10  11  12  23  26  30  31  33  0
 6-311+G(2d,p)
 ****
 35  36  37  38 0
 6-311+G(2d,p)
 ****
 1  2  13  14  15  16  17  18  19  20  21  22  24  25  27  28  29 0
 3-21G
 ****
 32  34  39  40  41  42  43  44  45  46  47  48  49 0
 3-21G
 ****


