%nproc=1
%NoSave
%Mem=1900MB
#P OB98/GEN NMR

erre ene a

0 1
  C       35.164      -3.189    1117.394
  O       34.338      -2.271    1116.702
  H       34.531      -3.871    1117.975
  H       35.823      -2.651    1118.103
  H       35.764      -3.773    1116.697
  P       35.042      -1.159    1115.791
  C       36.597       0.870    1116.235
  O       35.774      -0.155    1116.810
  C       36.176       2.229    1116.770
  O       36.056       2.201    1118.210
  C       37.148       3.360    1116.430
  O       36.935       3.820    1115.116
  C       36.772       4.379    1117.511
  O       35.545       5.039    1117.127
  C       36.529       3.468    1118.725
  N       38.800       4.405    1123.172
  C       37.607       4.893    1122.658
  N       36.939       5.783    1123.441
  N       37.115       4.553    1121.516
  C       37.924       3.700    1120.808
  C       39.138       3.172    1121.198
  C       39.637       3.523    1122.522
  O       40.675       3.094    1123.011
  N       39.684       2.402    1120.198
  C       38.787       2.445    1119.228
  N       37.716       3.235    1119.540
  O       34.164      -0.469    1114.791
  O       36.258      -1.933    1115.098
  H       35.268       5.601    1117.867
  H       35.995      -2.294    1114.227
  H       39.135       4.726    1124.064
  H       38.878       1.918    1118.293
  H       35.745       3.870    1119.387
  H       37.519       5.156    1117.651
  H       37.396       6.278    1124.178
  H       38.191       3.049    1116.604
  H       36.082       6.181    1123.061
  H       35.173       2.459    1116.365
  H       36.458       0.814    1115.139
  H       37.647       0.687    1116.465
  P       38.175       4.178    1114.159
  C       40.391       5.485    1114.566
  O       39.053       5.267    1114.983
  O       37.816       4.601    1112.778
  O       39.130       2.883    1114.209
  H       38.889       2.195    1113.521
  H       40.845       6.222    1115.195
  H       40.397       5.828    1113.552
  H       40.940       4.569    1114.637

 6  7  8  9  10  11  12  13  14  15  26  29  33  34 0
 6-311+G(2d,p)
 ****
 36  38  39  40  41 0
 6-311+G(2d,p)
 ****
 1  2  3  4  5  16  17  18  19  20  21  22  23  24  25 0
 3-21G
 ****
 27  28  30  31  32  35  37  42  43  44  45  46  47 0
 3-21G
 ****
 48  49 0
 3-21G
 ****


