%nproc=1
%NoSave
%Mem=1900MB
#P OB98/GEN NMR

erre ene a

0 1
  C      587.345     364.427     -85.370
  O      587.776     363.087     -85.484
  P      587.664     362.230     -86.824
  C      585.159     361.548     -86.476
  O      586.126     362.208     -87.287
  C      584.404     360.485     -87.283
  O      583.576     359.719     -86.373
  C      583.451     361.126     -88.312
  O      583.439     360.477     -89.582
  C      582.133     361.205     -87.558
  O      581.000     361.342     -88.396
  C      582.187     359.938     -86.704
  N      577.946     361.581     -84.429
  C      578.249     361.537     -85.778
  N      577.391     362.182     -86.600
  N      579.323     360.951     -86.257
  C      580.141     360.451     -85.306
  C      579.944     360.427     -83.946
  C      578.744     361.049     -83.428
  O      578.488     361.208     -82.236
  N      581.018     359.900     -83.282
  C      581.886     359.624     -84.240
  N      581.408     359.981     -85.482
  O      588.431     360.949     -86.865
  O      588.325     363.231     -87.905
  H      580.208     361.285     -87.838
  H      588.787     362.673     -88.565
  H      577.148     362.116     -84.114
  H      582.870     359.212     -84.092
  H      581.832     359.067     -87.258
  H      582.170     362.099     -86.927
  H      576.651     362.758     -86.247
  H      583.778     362.146     -88.561
  H      577.722     362.382     -87.544
  H      585.118     359.797     -87.741
  H      584.467     362.322     -86.131
  H      585.632     361.101     -85.602
  P      583.247     361.114     -91.028
  C      580.994     359.945     -91.385
  O      581.679     361.177     -91.360
  O      583.777     359.994     -92.052
  O      583.980     362.398     -91.252
  H      584.266     360.417     -92.772
  H      580.027     360.089     -91.879
  H      580.814     359.598     -90.366
  H      581.565     359.195     -91.935
  H      587.528     364.777     -84.375
  H      586.298     364.484     -85.582
  H      587.883     365.035     -86.067

 3  4  5  6  7  8  9  10  11  12  23  26  30  31 0
 6-311+G(2d,p)
 ****
 33  35  36  37  38 0
 6-311+G(2d,p)
 ****
 1  2  13  14  15  16  17  18  19  20  21  22  24  25 0
 3-21G
 ****
 27  28  29  32  34  39  40  41  42  43  44  45  46  47  48  49 0
 3-21G
 ****


