%nproc=1
%NoSave
%Mem=1900MB
#P OB98/GEN NMR

erre ene a

0 1
  C     -736.562      15.076    -660.835
  O     -736.765      16.275    -660.111
  P     -736.057      17.609    -660.668
  C     -738.292      18.947    -660.685
  O     -737.217      18.409    -661.455
  C     -739.466      19.312    -661.571
  O     -739.992      18.124    -662.215
  C     -740.645      19.934    -660.857
  O     -740.443      21.323    -660.605
  C     -741.775      19.718    -661.866
  O     -741.706      20.746    -662.882
  C     -741.393      18.346    -662.472
  N     -745.812      15.855    -662.562
  C     -745.397      16.953    -663.288
  N     -746.275      17.448    -664.211
  N     -744.231      17.522    -663.152
  C     -743.443      16.914    -662.245
  C     -743.747      15.824    -661.447
  C     -745.053      15.225    -661.585
  O     -745.505      14.302    -660.916
  N     -742.681      15.485    -660.651
  C     -741.718      16.321    -660.976
  N     -742.151      17.245    -661.919
  O     -735.129      17.062    -661.856
  O     -735.285      18.381    -659.666
  H     -740.830      20.665    -663.300
  H     -734.386      17.661    -662.012
  H     -746.724      15.457    -662.718
  H     -740.715      16.320    -660.578
  H     -741.531      18.352    -663.566
  H     -742.766      19.757    -661.415
  H     -747.130      16.969    -664.459
  H     -740.885      19.385    -659.928
  H     -745.967      18.224    -664.785
  H     -739.097      19.983    -662.372
  H     -737.948      19.845    -660.171
  H     -738.591      18.199    -659.932
  P     -740.759      21.845    -659.101
  C     -738.433      22.941    -658.763
  O     -739.336      21.912    -658.384
  O     -741.469      20.566    -658.427
  O     -741.608      23.062    -659.047
  H     -742.039      20.856    -657.703
  H     -738.972      23.880    -658.983
  H     -737.867      22.644    -659.641
  H     -737.748      23.136    -657.932
  H     -737.087      14.276    -660.355
  H     -735.517      14.850    -660.865
  H     -736.929      15.195    -661.833

 3  4  5  6  7  8  9  10  11  12  23  26  30  31  33  0
 6-311+G(2d,p)
 ****
 35  36  37  38 0
 6-311+G(2d,p)
 ****
 1  2  13  14  15  16  17  18  19  20  21  22  24  25  27  28  29 0
 3-21G
 ****
 32  34  39  40  41  42  43  44  45  46  47  48  49 0
 3-21G
 ****


