%nproc=1
%NoSave
%Mem=1900MB
#P OB98/GEN NMR

erre ene a

0 1
  C      508.630    -396.687      46.765
  O      507.626    -397.030      45.827
  P      507.209    -395.909      44.752
  C      505.526    -397.640      43.778
  O      505.754    -396.304      44.211
  C      504.512    -397.659      42.638
  O      504.854    -396.659      41.656
  C      504.446    -398.971      41.869
  O      503.745    -399.959      42.604
  C      503.747    -398.514      40.593
  O      502.335    -398.383      40.820
  C      504.371    -397.125      40.366
  N      505.670    -397.321      35.417
  C      504.468    -397.344      36.037
  N      504.205    -397.311      37.362
  C      505.344    -397.239      38.067
  C      506.638    -397.230      37.578
  C      506.785    -397.269      36.183
  N      508.013    -397.249      35.557
  N      507.553    -397.171      38.610
  C      506.821    -397.136      39.704
  N      505.481    -397.158      39.428
  O      508.166    -396.223      43.509
  O      507.352    -394.499      45.229
  H      501.913    -398.246      39.947
  H      508.418    -395.399      43.048
  H      503.604    -397.395      35.383
  H      507.213    -397.086      40.709
  H      503.647    -396.392      39.997
  H      503.885    -399.207      39.753
  H      505.453    -399.331      41.636
  H      503.529    -397.408      43.052
  H      505.130    -398.231      44.612
  H      508.033    -397.431      34.564
  H      508.839    -397.355      36.128
  H      506.476    -398.082      43.465
  P      504.208    -401.486      42.416
  C      502.941    -401.520      44.654
  O      503.376    -402.280      43.535
  O      505.683    -401.453      43.034
  O      504.094    -402.010      41.027
  H      505.706    -401.012      43.899
  H      502.348    -402.163      45.306
  H      502.325    -400.681      44.323
  H      503.809    -401.150      45.212
  H      508.809    -397.517      47.416
  H      508.307    -395.845      47.341
  H      509.533    -396.439      46.247

 3  4  5  6  7  8  9  10  11  12  22  25  29  30  31  32 0
 6-311+G(2d,p)
 ****
 33  36  37 0
 6-311+G(2d,p)
 ****
 1  2  13  14  15  16  17  18  19  20  21  23  24  26 0
 3-21G
 ****
 27  28  34  35  38  39  40  41  42  43  44  45  46  47  48 0
 3-21G
 ****


