%nproc=1
%NoSave
%Mem=1900MB
#P OB98/GEN NMR

erre ene a

0 1
  C      -30.874      82.685     177.345
  O      -29.984      81.602     177.170
  H      -30.411      83.439     177.986
  H      -31.078      83.134     176.369
  H      -31.816      82.348     177.783
  P      -29.778      80.612     178.416
  C      -29.147      78.831     176.634
  O      -28.839      79.414     177.892
  C      -28.518      77.443     176.523
  O      -27.098      77.597     176.247
  C      -28.661      76.581     177.789
  O      -28.901      75.227     177.391
  C      -27.283      76.672     178.426
  O      -26.986      75.552     179.257
  C      -26.390      76.774     177.193
  N      -21.403      75.806     177.431
  C      -22.419      75.166     176.815
  N      -23.719      75.524     176.754
  C      -23.911      76.704     177.369
  C      -22.978      77.477     178.036
  C      -21.666      76.971     178.070
  N      -20.638      77.581     178.757
  N      -23.578      78.595     178.583
  C      -24.854      78.485     178.271
  N      -25.105      77.357     177.539
  O      -31.219      79.926     178.550
  O      -29.346      81.259     179.690
  H      -26.044      75.592     179.514
  H      -31.789      80.472     179.121
  H      -22.156      74.238     176.307
  H      -25.636      79.171     178.574
  H      -26.197      75.800     176.727
  H      -27.220      77.580     179.037
  H      -29.455      76.916     178.465
  H      -28.959      76.929     175.658
  H      -28.744      79.467     175.837
  H      -19.759      77.091     178.817
  H      -20.842      78.388     179.326
  H      -30.232      78.767     176.522
  P      -30.423      74.720     177.384
  C      -30.277      73.871     174.924
  O      -30.569      73.563     176.284
  O      -31.214      75.953     176.734
  O      -30.953      74.376     178.738
  H      -32.110      76.015     177.115
  H      -30.422      72.999     174.322
  H      -29.261      74.196     174.842
  H      -30.929      74.650     174.587

 6  7  8  9  10  11  12  13  14  15  25  28  32  33  34  35 0
 6-311+G(2d,p)
 ****
 36  39  40 0
 6-311+G(2d,p)
 ****
 1  2  3  4  5  16  17  18  19  20  21  22  23  24 0
 3-21G
 ****
 26  27  29  30  31  37  38  41  42  43  44  45  46  47 0
 3-21G
 ****
 48 0
 3-21G
 ****


