%nproc=1
%NoSave
%Mem=1900MB
#P OB98/GEN NMR

erre ene a

0 1
  C     -195.750    -498.262     164.154
  O     -195.110    -497.775     165.314
  H     -195.158    -499.063     163.706
  H     -196.730    -498.662     164.432
  H     -195.892    -497.453     163.431
  P     -193.634    -497.173     165.127
  C     -193.892    -494.619     165.494
  O     -193.532    -495.872     166.065
  C     -192.751    -493.623     165.667
  O     -192.601    -493.340     167.085
  C     -191.391    -494.096     165.131
  O     -190.895    -493.179     164.152
  C     -190.467    -494.057     166.339
  O     -189.162    -493.565     166.035
  C     -191.201    -493.138     167.311
  N     -187.299    -493.862     170.515
  C     -187.378    -493.212     169.333
  N     -188.468    -492.962     168.581
  C     -189.576    -493.439     169.176
  C     -189.656    -494.107     170.388
  C     -188.446    -494.330     171.064
  N     -188.365    -495.042     172.240
  N     -190.969    -494.454     170.665
  C     -191.655    -494.047     169.621
  N     -190.854    -493.445     168.685
  O     -193.670    -496.567     163.643
  O     -192.526    -498.159     165.293
  H     -188.766    -493.279     166.882
  H     -192.880    -496.857     163.153
  H     -186.436    -492.845     168.936
  H     -192.715    -494.200     169.465
  H     -190.975    -492.079     167.128
  H     -190.372    -495.072     166.746
  H     -191.441    -495.106     164.704
  H     -193.039    -492.680     165.184
  H     -194.786    -494.231     165.994
  H     -187.443    -495.256     172.594
  H     -189.197    -495.486     172.600
  H     -194.119    -494.766     164.435
  P     -190.378    -493.814     162.761
  C     -192.630    -493.897     161.459
  O     -191.358    -493.287     161.606
  O     -190.777    -495.356     162.906
  O     -188.919    -493.630     162.519
  H     -190.178    -495.909     162.367
  H     -193.156    -493.434     160.651
  H     -193.189    -493.778     162.363
  H     -192.504    -494.939     161.252

 6  7  8  9  10  11  12  13  14  15  25  28  32  33  34  35 0
 6-311+G(2d,p)
 ****
 36  39  40 0
 6-311+G(2d,p)
 ****
 1  2  3  4  5  16  17  18  19  20  21  22  23  24 0
 3-21G
 ****
 26  27  29  30  31  37  38  41  42  43  44  45  46  47  48 0
 3-21G
 ****


