%nproc=1
%NoSave
%Mem=1900MB
#P OB98/GEN NMR

erre ene a

0 1
  C      335.914    -435.943     140.404
  O      336.951    -436.787     139.886
  P      338.301    -436.091     139.367
  C      337.967    -436.972     136.941
  O      338.821    -436.884     138.071
  C      338.191    -438.299     136.206
  O      337.188    -439.277     136.547
  C      338.131    -438.175     134.689
  O      339.361    -437.713     134.156
  C      337.887    -439.617     134.282
  O      339.129    -440.349     134.316
  C      336.953    -440.117     135.390
  N      333.446    -441.249     131.829
  C      334.788    -441.420     131.861
  N      335.658    -441.073     132.839
  C      335.008    -440.514     133.874
  C      333.648    -440.276     133.980
  C      332.850    -440.671     132.896
  N      331.482    -440.495     132.869
  N      333.349    -439.673     135.185
  C      334.509    -439.559     135.803
  N      335.544    -440.050     135.041
  O      339.368    -436.486     140.492
  O      338.196    -434.611     139.209
  H      338.908    -441.274     134.549
  H      340.007    -435.759     140.609
  H      335.223    -441.893     130.987
  H      334.658    -439.142     136.785
  H      337.166    -441.148     135.687
  H      337.492    -439.710     133.268
  H      337.280    -437.550     134.379
  H      339.171    -438.690     136.504
  H      338.151    -436.137     136.264
  H      330.973    -440.830     132.067
  H      331.027    -440.085     133.673
  H      336.928    -436.878     137.273
  P      339.306    -436.458     133.154
  C      340.958    -437.662     131.551
  O      340.665    -436.510     132.314
  O      339.498    -435.208     134.133
  O      338.044    -436.359     132.359
  H      339.033    -434.431     133.773
  H      341.741    -437.420     130.824
  H      340.071    -438.016     131.011
  H      341.328    -438.463     132.207
  H      335.083    -436.545     140.708
  H      335.599    -435.258     139.645
  H      336.286    -435.397     141.245

 3  4  5  6  7  8  9  10  11  12  22  25  29  30  31  32 0
 6-311+G(2d,p)
 ****
 33  36  37 0
 6-311+G(2d,p)
 ****
 1  2  13  14  15  16  17  18  19  20  21  23  24  26 0
 3-21G
 ****
 27  28  34  35  38  39  40  41  42  43  44  45  46  47  48 0
 3-21G
 ****


