%nproc=1
%NoSave
%Mem=1900MB
#P OB98/GEN NMR

erre ene a

0 1
  C     -147.606       8.287      15.752
  O     -147.257       8.443      14.389
  H     -148.590       7.815      15.811
  H     -147.660       9.266      16.234
  H     -146.883       7.652      16.275
  P     -145.754       8.850      14.011
  C     -145.439       6.864      12.388
  O     -145.499       8.278      12.532
  C     -145.177       6.494      10.924
  O     -146.382       6.788      10.153
  C     -144.012       7.288      10.290
  O     -143.343       6.446       9.346
  C     -144.760       8.390       9.562
  O     -143.981       8.980       8.551
  C     -145.984       7.630       9.058
  N     -147.046       8.542       8.640
  C     -146.965       9.057       7.349
  O     -146.048       8.790       6.568
  N     -147.931       9.956       6.996
  C     -148.887      10.464       7.834
  O     -149.681      11.330       7.484
  C     -148.893       9.926       9.203
  C     -147.993       9.000       9.536
  O     -144.704       8.479      15.010
  O     -145.822      10.426      13.754
  H     -144.420       9.781       8.217
  H     -144.932      10.825      13.841
  H     -147.892      10.328       6.061
  H     -149.633      10.318       9.892
  H     -147.958       8.594      10.545
  H     -145.718       6.978       8.216
  H     -145.053       9.178      10.269
  H     -143.300       7.666      11.024
  H     -145.001       5.416      10.850
  H     -146.399       6.444      12.708
  H     -144.645       6.463      13.025
  P     -141.983       5.675       9.709
  C     -142.336       3.523       8.345
  O     -141.543       4.697       8.506
  O     -141.995       5.012      11.056
  O     -140.857       6.822       9.681
  H     -140.289       6.733      10.472
  H     -141.960       2.948       7.524
  H     -143.351       3.802       8.150
  H     -142.292       2.938       9.240

 6  7  8  9  10  11  12  13  14  15  16  26  31  32  33  34  35 0
 6-311+G(2d,p)
 ****
 36  37 0
 6-311+G(2d,p)
 ****
 1  2  3  4  5  17  18  19  20  21  22  23  24  25 0
 3-21G
 ****
 27  28  29  30  38  39  40  41  42  43  44  45 0
 3-21G
 ****


