%nproc=1
%NoSave
%Mem=1900MB
#P OB98/GEN NMR

erre ene a

0 1
  C      100.626     171.139    -115.402
  O      101.187     169.855    -115.570
  H      100.657     171.397    -114.340
  H       99.586     171.151    -115.735
  H      101.204     171.884    -115.956
  P      101.205     169.208    -117.036
  C      100.609     166.738    -116.587
  O      101.645     167.675    -116.860
  C      101.154     165.308    -116.678
  O      101.446     165.035    -118.071
  C      102.445     165.118    -115.869
  O      102.381     164.019    -114.963
  C      103.529     165.087    -116.940
  O      104.694     164.375    -116.580
  C      102.791     164.530    -118.163
  N      103.396     164.903    -119.440
  C      103.333     163.972    -120.471
  O      102.788     162.873    -120.402
  N      103.928     164.352    -121.647
  C      104.567     165.532    -121.881
  O      105.076     165.817    -122.958
  C      104.621     166.464    -120.745
  C      104.044     166.113    -119.594
  O      101.973     169.964    -118.066
  O       99.656     169.094    -117.426
  H      105.231     164.255    -117.390
  H       99.421     169.811    -118.043
  H      103.878     163.689    -122.405
  H      105.130     167.407    -120.892
  H      104.062     166.778    -118.736
  H      102.749     163.442    -118.121
  H      103.835     166.119    -117.147
  H      102.622     165.976    -115.211
  H      100.371     164.611    -116.362
  H       99.815     166.889    -117.324
  H      100.205     166.917    -115.584
  P      101.867     164.113    -113.455
  C      103.509     162.284    -112.544
  O      102.170     162.717    -112.737
  O      100.500     164.683    -113.275
  O      102.914     165.131    -112.769
  H      102.416     165.625    -112.087
  H      103.509     161.334    -112.051
  H      104.032     162.998    -111.943
  H      103.995     162.193    -113.493

 6  7  8  9  10  11  12  13  14  15  16  26  31  32  33  34  35 0
 6-311+G(2d,p)
 ****
 36  37 0
 6-311+G(2d,p)
 ****
 1  2  3  4  5  17  18  19  20  21  22  23  24  25 0
 3-21G
 ****
 27  28  29  30  38  39  40  41  42  43  44  45 0
 3-21G
 ****


