%nproc=1
%NoSave
%Mem=1900MB
#P OB98/GEN NMR

erre ene a

0 1
  C       13.102      29.655      15.498
  O       13.660      29.553      14.204
  H       12.357      30.456      15.497
  H       13.882      29.903      16.221
  H       12.613      28.720      15.783
  P       14.628      28.302      13.935
  C       16.544      30.016      14.292
  O       16.065      28.701      14.529
  C       18.049      30.081      14.535
  O       18.339      29.907      15.940
  C       18.849      29.010      13.800
  O       19.110      29.378      12.453
  C       20.126      29.002      14.624
  O       20.938      30.141      14.275
  C       19.580      29.156      16.050
  N       19.709      26.697      20.480
  C       20.077      27.993      20.173
  N       20.557      28.738      21.191
  N       19.988      28.512      18.977
  C       19.502      27.647      18.055
  C       19.101      26.343      18.236
  C       19.197      25.784      19.565
  O       18.863      24.650      19.896
  N       18.653      25.788      17.067
  C       18.800      26.747      16.175
  N       19.318      27.895      16.722
  O       14.861      28.349      12.349
  O       14.098      26.977      14.366
  H       20.399      30.934      14.447
  H       14.920      27.434      12.013
  H       19.809      26.343      21.415
  H       18.547      26.663      15.128
  H       20.256      29.729      16.695
  H       20.732      28.112      14.453
  H       20.698      28.384      22.125
  H       18.365      28.029      13.867
  H       20.802      29.701      20.998
  H       18.393      31.083      14.251
  H       16.038      30.712      14.969
  H       16.317      30.297      13.259
  P       18.964      28.238      11.329
  C       21.374      27.641      10.566
  O       20.294      27.348      11.445
  O       19.180      29.047       9.965
  O       17.672      27.497      11.347
  H       18.765      28.566       9.223
  H       22.184      26.970      10.760
  H       21.699      28.648      10.724
  H       21.050      27.526       9.553

 6  7  8  9  10  11  12  13  14  15  26  29  33  34 0
 6-311+G(2d,p)
 ****
 36  38  39  40  41 0
 6-311+G(2d,p)
 ****
 1  2  3  4  5  16  17  18  19  20  21  22  23  24  25 0
 3-21G
 ****
 27  28  30  31  32  35  37  42  43  44  45  46  47 0
 3-21G
 ****
 48  49 0
 3-21G
 ****


