%nproc=1
%NoSave
%Mem=1900MB
#P OB98/GEN NMR

erre ene a

0 1
  C       26.215      -7.185     -15.030
  O       26.387      -8.563     -14.771
  H       25.178      -7.011     -15.325
  H       26.867      -6.873     -15.849
  H       26.429      -6.591     -14.138
  P       27.766      -9.062     -14.125
  C       29.026      -8.639     -11.915
  O       27.983      -8.214     -12.782
  C       29.743      -7.427     -11.329
  O       30.422      -6.698     -12.373
  C       28.814      -6.420     -10.659
  O       28.393      -6.887      -9.392
  C       29.708      -5.190     -10.626
  O       30.636      -5.262      -9.532
  C       30.443      -5.307     -11.982
  N       29.864      -4.462     -13.025
  C       30.514      -3.259     -13.280
  O       31.500      -2.882     -12.649
  N       29.977      -2.488     -14.277
  C       28.832      -2.760     -14.968
  O       28.362      -2.008     -15.817
  C       28.168      -4.027     -14.633
  C       28.706      -4.808     -13.694
  O       28.942      -9.091     -15.045
  O       27.416     -10.523     -13.573
  H       31.052      -6.144      -9.578
  H       27.743     -11.198     -14.196
  H       30.426      -1.607     -14.466
  H       27.255      -4.273     -15.157
  H       28.227      -5.744     -13.429
  H       31.498      -5.030     -11.867
  H       29.146      -4.265     -10.501
  H       27.953      -6.211     -11.304
  H       30.501      -7.787     -10.622
  H       29.738      -9.242     -12.490
  H       28.596      -9.257     -11.121
  P       26.959      -6.487      -8.808
  C       24.518      -6.734      -9.540
  O       25.875      -6.754      -9.963
  O       26.880      -5.135      -8.182
  O       26.642      -7.636      -7.741
  H       26.743      -7.284      -6.835
  H       23.880      -6.921     -10.379
  H       24.288      -5.775      -9.124
  H       24.364      -7.490      -8.799

 6  7  8  9  10  11  12  13  14  15  16  26  31  32  33  34  35 0
 6-311+G(2d,p)
 ****
 36  37 0
 6-311+G(2d,p)
 ****
 1  2  3  4  5  17  18  19  20  21  22  23  24  25 0
 3-21G
 ****
 27  28  29  30  38  39  40  41  42  43  44  45 0
 3-21G
 ****


