%nproc=1
%NoSave
%Mem=1900MB
#P OB98/GEN NMR

erre ene a

0 1
  C     -391.702    -964.104    -249.098
  O     -392.433    -965.148    -248.493
  H     -392.318    -963.665    -249.892
  H     -390.791    -964.499    -249.543
  H     -391.458    -963.314    -248.382
  P     -391.893    -965.765    -247.114
  C     -394.107    -965.470    -245.826
  O     -392.746    -965.079    -245.942
  C     -395.027    -964.240    -245.775
  O     -394.893    -963.501    -247.020
  C     -396.520    -964.591    -245.587
  O     -397.115    -963.513    -244.856
  C     -397.009    -964.591    -247.025
  O     -398.413    -964.488    -247.095
  C     -396.220    -963.411    -247.599
  N     -396.171    -963.429    -249.066
  C     -396.709    -962.326    -249.717
  O     -397.233    -961.380    -249.123
  N     -396.674    -962.345    -251.083
  C     -396.228    -963.393    -251.845
  O     -396.247    -963.378    -253.077
  C     -395.704    -964.548    -251.099
  C     -395.701    -964.521    -249.783
  O     -390.416    -965.720    -246.917
  O     -392.449    -967.271    -247.100
  H     -398.701    -963.600    -246.794
  H     -391.837    -967.849    -246.621
  H     -397.055    -961.554    -251.574
  H     -395.347    -965.394    -251.679
  H     -395.326    -965.359    -249.198
  H     -396.653    -962.463    -247.290
  H     -396.724    -965.524    -247.531
  H     -396.684    -965.535    -245.077
  H     -394.671    -963.578    -244.970
  H     -394.216    -966.050    -244.905
  H     -394.375    -966.100    -246.680
  P     -397.121    -963.465    -243.260
  C     -396.306    -961.129    -242.561
  O     -395.954    -962.500    -242.749
  O     -397.132    -964.806    -242.602
  O     -398.467    -962.663    -242.880
  H     -398.791    -962.950    -242.005
  H     -395.450    -960.585    -242.220
  H     -397.087    -961.058    -241.833
  H     -396.644    -960.717    -243.489

 6  7  8  9  10  11  12  13  14  15  16  26  31  32  33  34  35 0
 6-311+G(2d,p)
 ****
 36  37 0
 6-311+G(2d,p)
 ****
 1  2  3  4  5  17  18  19  20  21  22  23  24  25 0
 3-21G
 ****
 27  28  29  30  38  39  40  41  42  43  44  45 0
 3-21G
 ****


