%nproc=1
%NoSave
%Mem=1900MB
#P OB98/GEN NMR

erre ene a

0 1
  C     -723.697     546.127     463.900
  O     -723.865     545.554     462.617
  H     -724.576     546.733     464.136
  H     -722.819     546.778     463.920
  H     -723.593     545.342     464.654
  P     -722.632     544.751     461.975
  C     -722.510     543.077     460.007
  O     -723.293     543.606     461.071
  C     -722.938     541.648     459.698
  O     -722.707     540.797     460.841
  C     -724.420     541.516     459.378
  O     -724.697     541.975     458.066
  C     -724.636     540.032     459.613
  O     -724.194     539.262     458.494
  C     -723.735     539.784     460.842
  N     -724.477     539.797     462.101
  C     -724.377     538.639     462.883
  O     -723.685     537.693     462.512
  N     -725.087     538.590     464.063
  C     -725.805     539.599     464.431
  N     -726.474     539.476     465.617
  C     -725.929     540.839     463.647
  C     -725.255     540.868     462.503
  O     -721.582     544.263     462.916
  O     -722.042     545.772     460.890
  H     -724.822     539.458     457.772
  H     -721.361     546.344     461.291
  H     -726.544     541.657     463.996
  H     -725.284     541.739     461.861
  H     -723.227     538.815     460.769
  H     -725.687     539.805     459.788
  H     -725.016     542.065     460.119
  H     -722.321     541.274     458.863
  H     -726.371     538.609     466.114
  H     -721.463     543.101     460.325
  H     -727.000     540.228     466.043
  H     -722.608     543.701     459.113
  P     -726.207     542.011     457.523
  C     -727.233     542.876     455.320
  O     -726.185     543.032     456.280
  O     -727.257     542.272     458.552
  O     -726.361     540.592     456.807
  H     -726.455     539.855     457.468
  H     -727.117     543.604     454.544
  H     -728.179     543.014     455.800
  H     -727.187     541.894     454.898

 6  7  8  9  10  11  12  13  14  15  16  26  30  31  32  33  35 0
 6-311+G(2d,p)
 ****
 37  38 0
 6-311+G(2d,p)
 ****
 1  2  3  4  5  17  18  19  20  21  22  23  24  25 0
 3-21G
 ****
 27  28  29  34  36  39  40  41  42  43  44  45  46 0
 3-21G
 ****


