%nproc=1
%NoSave
%Mem=1900MB
#P OB98/GEN NMR

erre ene a

0 1
  C      331.043     299.940     -13.158
  O      331.220     301.313     -12.849
  P      330.821     302.466     -13.896
  C      328.474     302.951     -12.928
  O      329.226     302.415     -14.000
  C      327.052     303.284     -13.381
  O      326.261     303.633     -12.217
  C      326.964     304.453     -14.372
  O      325.891     304.162     -15.278
  C      326.610     305.621     -13.481
  O      325.998     306.690     -14.192
  C      325.697     304.940     -12.455
  N      325.587     305.701     -11.209
  C      324.513     306.585     -11.087
  O      323.708     306.737     -12.003
  N      324.381     307.285      -9.914
  C      325.279     307.179      -8.991
  N      325.066     307.850      -7.824
  C      326.482     306.339      -9.124
  C      326.559     305.617     -10.239
  O      331.538     302.396     -15.204
  O      331.060     303.827     -13.093
  H      325.848     307.427     -13.573
  H      331.996     304.143     -13.137
  H      327.221     306.306      -8.338
  H      327.393     304.957     -10.414
  H      324.702     304.775     -12.882
  H      327.515     306.014     -13.008
  H      327.886     304.596     -14.942
  H      326.611     302.378     -13.816
  H      324.150     308.269      -7.699
  H      328.962     303.873     -12.590
  H      325.527     307.570      -6.967
  H      328.466     302.242     -12.091
  P      325.989     304.720     -16.777
  C      328.187     303.420     -17.236
  O      327.524     304.668     -17.232
  O      325.766     306.295     -16.552
  O      324.975     304.200     -17.748
  H      325.399     306.689     -17.366
  H      329.214     303.571     -17.580
  H      327.692     302.729     -17.921
  H      328.211     302.996     -16.232
  H      331.369     299.344     -12.332
  H      331.619     299.693     -14.025
  H      330.008     299.748     -13.350

 3  4  5  6  7  8  9  10  11  12  13  23  27  28  29  30  32 0
 6-311+G(2d,p)
 ****
 34  35 0
 6-311+G(2d,p)
 ****
 1  2  14  15  16  17  18  19  20  21  22  24  25  26 0
 3-21G
 ****
 31  33  36  37  38  39  40  41  42  43  44  45  46 0
 3-21G
 ****


