%nproc=1
%NoSave
%Mem=1900MB
#P OB98/GEN NMR

erre ene a

0 1
  C     -285.411    -135.528    -377.613
  O     -286.533    -136.374    -377.389
  P     -286.723    -137.653    -378.340
  C     -288.398    -138.331    -380.198
  O     -287.873    -137.284    -379.400
  C     -289.311    -137.788    -381.295
  O     -290.542    -137.300    -380.688
  C     -288.717    -136.629    -382.104
  O     -289.223    -136.739    -383.440
  C     -289.318    -135.403    -381.445
  O     -289.290    -134.264    -382.294
  C     -290.710    -135.930    -381.113
  N     -293.712    -131.908    -380.100
  C     -293.279    -132.435    -381.265
  N     -292.481    -133.508    -381.454
  C     -292.129    -134.052    -380.276
  C     -292.461    -133.605    -379.008
  C     -293.301    -132.479    -378.938
  N     -293.754    -131.944    -377.755
  N     -291.888    -134.405    -378.042
  C     -291.217    -135.320    -378.714
  N     -291.352    -135.161    -380.067
  O     -287.433    -138.709    -377.370
  O     -285.466    -138.205    -378.918
  H     -288.396    -133.869    -382.253
  H     -286.824    -139.444    -377.175
  H     -293.620    -131.934    -382.162
  H     -290.617    -136.107    -378.276
  H     -291.375    -135.926    -381.988
  H     -288.759    -135.162    -380.533
  H     -287.622    -136.609    -382.114
  H     -289.589    -138.615    -381.957
  H     -288.981    -139.000    -379.556
  H     -294.461    -131.230    -377.790
  H     -293.608    -132.472    -376.899
  H     -287.577    -138.905    -380.639
  P     -288.556    -135.794    -384.552
  C     -287.736    -133.331    -384.631
  O     -288.379    -134.352    -383.884
  O     -289.739    -135.580    -385.611
  O     -287.340    -136.375    -385.195
  H     -289.372    -135.414    -386.497
  H     -288.179    -132.372    -384.365
  H     -287.847    -133.491    -385.710
  H     -286.674    -133.318    -384.375
  H     -285.422    -134.726    -376.905
  H     -285.457    -135.129    -378.605
  H     -284.510    -136.093    -377.498

 3  4  5  6  7  8  9  10  11  12  22  25  29  30  31  32 0
 6-311+G(2d,p)
 ****
 33  36  37 0
 6-311+G(2d,p)
 ****
 1  2  13  14  15  16  17  18  19  20  21  23  24  26 0
 3-21G
 ****
 27  28  34  35  38  39  40  41  42  43  44  45  46  47  48 0
 3-21G
 ****


