%nproc=1
%NoSave
%Mem=1900MB
#P OB98/GEN NMR

erre ene a

0 1
  C      425.997    -360.169    -526.121
  O      425.327    -361.248    -525.497
  H      425.300    -359.327    -526.206
  H      426.320    -360.459    -527.124
  H      426.859    -359.857    -525.526
  P      426.225    -362.527    -525.116
  C      426.343    -363.842    -527.389
  O      426.966    -362.958    -526.474
  C      427.373    -364.437    -528.353
  O      428.017    -363.349    -529.065
  C      428.468    -365.256    -527.660
  O      428.818    -366.350    -528.508
  C      429.634    -364.283    -527.576
  O      430.883    -364.961    -527.458
  C      429.444    -363.479    -528.869
  N      430.101    -362.172    -528.813
  C      431.244    -362.012    -529.594
  O      431.675    -362.950    -530.273
  N      431.921    -360.812    -529.556
  C      431.508    -359.877    -528.751
  N      432.235    -358.720    -528.744
  C      430.330    -360.016    -527.883
  C      429.674    -361.174    -527.971
  O      425.107    -363.656    -524.916
  O      427.118    -362.322    -523.940
  H      430.867    -365.505    -526.641
  H      424.428    -363.658    -525.610
  H      430.034    -359.210    -527.222
  H      428.788    -361.365    -527.366
  H      429.852    -364.028    -529.730
  H      429.514    -363.633    -526.702
  H      428.155    -365.635    -526.685
  H      426.842    -365.043    -529.101
  H      433.051    -358.681    -529.343
  H      425.570    -363.317    -527.961
  H      432.041    -357.946    -528.124
  H      425.859    -364.635    -526.814
  P      428.440    -367.843    -528.079
  C      430.776    -368.644    -527.300
  O      429.439    -368.333    -526.921
  O      428.237    -368.813    -529.195
  O      427.059    -367.628    -527.273
  H      426.460    -368.359    -527.522
  H      431.328    -368.955    -526.438
  H      431.237    -367.777    -527.725
  H      430.768    -369.434    -528.022

 6  7  8  9  10  11  12  13  14  15  16  26  30  31  32  33  35 0
 6-311+G(2d,p)
 ****
 37  38 0
 6-311+G(2d,p)
 ****
 1  2  3  4  5  17  18  19  20  21  22  23  24  25 0
 3-21G
 ****
 27  28  29  34  36  39  40  41  42  43  44  45  46 0
 3-21G
 ****


