%nproc=1
%NoSave
%Mem=1900MB
#P OB98/GEN NMR

erre ene a

0 1
  C      101.808      38.589    -301.937
  O      101.885      37.259    -301.415
  P      103.087      36.243    -301.689
  C      104.255      34.321    -300.333
  O      103.153      35.211    -300.466
  C      103.937      33.084    -299.468
  O      104.028      33.442    -298.061
  C      102.500      32.617    -299.710
  O      102.203      31.777    -300.811
  C      102.044      32.061    -298.362
  O      102.238      30.653    -298.256
  C      102.936      32.803    -297.361
  N      101.979      34.740    -292.717
  C      102.774      33.668    -293.069
  N      103.356      32.989    -292.052
  N      102.972      33.283    -294.304
  C      102.268      33.994    -295.211
  C      101.427      35.066    -294.985
  C      101.262      35.516    -293.620
  O      100.575      36.469    -293.256
  N      100.868      35.520    -296.156
  C      101.342      34.713    -297.079
  N      102.203      33.769    -296.560
  O      104.372      36.863    -302.122
  O      102.537      35.343    -302.911
  H      103.192      30.471    -298.363
  H      103.319      35.099    -303.452
  H      101.884      35.008    -291.754
  H      101.105      34.766    -298.137
  H      103.399      32.099    -296.650
  H      100.976      32.243    -298.219
  H      103.151      33.156    -291.082
  H      101.890      33.516    -299.872
  H      103.761      32.078    -292.288
  H      104.681      32.297    -299.622
  H      105.074      34.896    -299.888
  H      104.601      34.001    -301.321
  P      101.623      32.245    -302.228
  C      101.680      31.112    -304.528
  O      101.432      30.943    -303.142
  O      102.857      32.990    -302.927
  O      100.427      33.147    -302.159
  H      102.545      33.537    -303.678
  H      101.236      30.271    -305.073
  H      102.763      31.111    -304.707
  H      101.244      32.045    -304.896
  H      100.903      39.052    -301.602
  H      101.816      38.553    -303.006
  H      102.647      39.156    -301.593

 3  4  5  6  7  8  9  10  11  12  23  26  30  31 0
 6-311+G(2d,p)
 ****
 33  35  36  37  38 0
 6-311+G(2d,p)
 ****
 1  2  13  14  15  16  17  18  19  20  21  22  24  25 0
 3-21G
 ****
 27  28  29  32  34  39  40  41  42  43  44  45  46  47  48  49 0
 3-21G
 ****


