%nproc=1
%NoSave
%Mem=1900MB
#P OB98/GEN NMR

erre ene a

0 1
  C      -44.166      18.355    -122.391
  O      -44.478      19.632    -122.899
  H      -44.047      17.665    -123.234
  H      -44.977      17.986    -121.759
  H      -43.231      18.381    -121.826
  P      -44.751      20.839    -121.875
  C      -47.286      20.564    -122.176
  O      -46.208      20.544    -121.250
  C      -48.633      20.606    -121.451
  O      -48.489      21.342    -120.205
  C      -49.749      21.282    -122.260
  O      -50.932      20.479    -122.216
  C      -49.990      22.586    -121.516
  O      -51.299      23.114    -121.725
  C      -49.661      22.165    -120.080
  N      -49.448      23.313    -119.207
  C      -50.599      23.980    -118.776
  O      -51.714      23.591    -119.128
  N      -50.458      25.104    -118.004
  C      -49.272      25.548    -117.727
  N      -49.206      26.686    -116.980
  C      -48.034      24.892    -118.184
  C      -48.192      23.786    -118.911
  O      -44.578      22.202    -122.458
  O      -43.775      20.557    -120.639
  H      -51.955      22.423    -121.483
  H      -43.621      21.401    -120.155
  H      -47.070      25.308    -117.928
  H      -47.339      23.234    -119.293
  H      -50.468      21.549    -119.659
  H      -49.266      23.337    -121.858
  H      -49.480      21.459    -123.300
  H      -48.908      19.582    -121.169
  H      -50.083      27.109    -116.691
  H      -47.221      19.672    -122.809
  H      -48.344      27.137    -116.722
  H      -47.188      21.457    -122.801
  P      -51.324      19.718    -123.572
  C      -53.716      20.631    -124.006
  O      -52.346      20.650    -124.384
  O      -52.230      18.500    -123.063
  O      -50.142      19.236    -124.348
  H      -51.749      17.659    -123.182
  H      -54.269      21.298    -124.634
  H      -53.809      20.942    -122.986
  H      -54.102      19.639    -124.113

 6  7  8  9  10  11  12  13  14  15  16  26  30  31  32  33  35 0
 6-311+G(2d,p)
 ****
 37  38 0
 6-311+G(2d,p)
 ****
 1  2  3  4  5  17  18  19  20  21  22  23  24  25 0
 3-21G
 ****
 27  28  29  34  36  39  40  41  42  43  44  45  46 0
 3-21G
 ****


