%nproc=1
%NoSave
%Mem=1900MB
#P OB98/GEN NMR

erre ene a

0 1
  C      -99.604      57.527     230.531
  O     -100.036      58.612     229.734
  H     -100.446      57.186     231.143
  H      -98.798      57.847     231.199
  H      -99.267      56.694     229.908
  P      -99.035      59.202     228.630
  C      -97.852      60.655     230.411
  O      -97.706      59.662     229.401
  C      -96.530      60.846     231.150
  O      -96.183      59.640     231.870
  C      -95.345      61.134     230.232
  O      -95.365      62.476     229.775
  C      -94.181      60.790     231.148
  O      -93.894      61.872     232.045
  C      -94.740      59.569     231.915
  N      -94.258      58.294     231.378
  C      -93.196      57.695     232.054
  O      -92.646      58.203     233.033
  N      -92.767      56.498     231.544
  C      -93.204      55.914     230.389
  O      -92.717      54.886     229.925
  C      -94.306      56.600     229.702
  C      -94.777      57.741     230.220
  O      -99.617      60.224     227.711
  O      -98.552      57.902     227.827
  H      -93.620      62.629     231.489
  H      -99.003      57.870     226.960
  H      -91.991      56.054     232.011
  H      -94.690      56.161     228.792
  H      -95.588      58.261     229.726
  H      -94.454      59.624     232.971
  H      -93.268      60.580     230.593
  H      -95.349      60.437     229.386
  H      -96.657      61.654     231.887
  H      -98.625      60.325     231.117
  H      -98.177      61.594     229.943
  P      -94.548      62.882     228.463
  C      -92.931      64.418     229.747
  O      -93.056      63.267     228.917
  O      -95.217      63.884     227.578
  O      -94.342      61.493     227.692
  H      -94.765      61.543     226.814
  H      -91.900      64.576     229.984
  H      -93.486      64.269     230.650
  H      -93.313      65.273     229.230

 6  7  8  9  10  11  12  13  14  15  16  26  31  32  33  34  35 0
 6-311+G(2d,p)
 ****
 36  37 0
 6-311+G(2d,p)
 ****
 1  2  3  4  5  17  18  19  20  21  22  23  24  25 0
 3-21G
 ****
 27  28  29  30  38  39  40  41  42  43  44  45 0
 3-21G
 ****


