%nproc=1
%NoSave
%Mem=1900MB
#P OB98/GEN NMR

erre ene a

0 1
  C     -225.797     279.639    -855.883
  O     -226.020     278.663    -856.881
  H     -224.847     279.454    -855.381
  H     -225.759     280.624    -856.358
  H     -226.613     279.629    -855.157
  P     -226.073     277.133    -856.396
  C     -228.550     277.139    -857.166
  O     -227.622     276.770    -856.154
  C     -229.977     276.967    -856.652
  O     -230.292     275.551    -856.642
  C     -230.217     277.518    -855.234
  O     -231.264     278.494    -855.254
  C     -230.701     276.314    -854.434
  O     -231.761     276.625    -853.536
  C     -231.147     275.331    -855.513
  N     -233.821     271.088    -854.593
  C     -234.075     272.153    -855.390
  N     -233.278     273.200    -855.674
  C     -232.084     273.070    -855.060
  C     -231.673     272.033    -854.241
  C     -232.608     271.016    -853.998
  N     -232.366     269.959    -853.144
  N     -230.383     272.254    -853.785
  C     -230.044     273.421    -854.289
  N     -231.048     273.963    -855.052
  O     -225.467     277.198    -854.914
  O     -225.328     276.170    -857.258
  H     -232.517     276.904    -854.080
  H     -224.797     276.500    -854.805
  H     -235.058     272.168    -855.856
  H     -229.112     273.943    -854.100
  H     -232.181     275.512    -855.833
  H     -229.861     275.912    -853.855
  H     -229.313     277.945    -854.786
  H     -230.661     277.443    -857.363
  H     -228.409     276.499    -858.046
  H     -233.136     269.340    -852.938
  H     -231.513     269.955    -852.608
  H     -228.364     278.176    -857.456
  P     -230.834     280.017    -854.950
  C     -231.150     280.643    -857.457
  O     -230.287     280.643    -856.323
  O     -229.510     279.846    -854.070
  O     -231.880     280.808    -854.239
  H     -229.389     280.620    -853.490
  H     -230.646     281.090    -858.289
  H     -232.034     281.203    -857.233
  H     -231.418     279.636    -857.701

 6  7  8  9  10  11  12  13  14  15  25  28  32  33  34  35 0
 6-311+G(2d,p)
 ****
 36  39  40 0
 6-311+G(2d,p)
 ****
 1  2  3  4  5  16  17  18  19  20  21  22  23  24 0
 3-21G
 ****
 26  27  29  30  31  37  38  41  42  43  44  45  46  47  48 0
 3-21G
 ****


