%nproc=1
%NoSave
%Mem=1900MB
#P OB98/GEN NMR

erre ene a

0 1
  C       -0.058     152.912     224.580
  O        0.068     151.518     224.381
  H       -0.895     153.111     225.254
  H        0.860     153.286     225.041
  H       -0.212     153.429     223.629
  P       -1.029     150.808     223.450
  C        0.470     149.625     221.689
  O       -0.329     149.485     222.855
  C        1.158     148.302     221.355
  O        2.033     147.941     222.460
  C        0.192     147.128     221.118
  O        0.706     146.326     220.051
  C        0.279     146.340     222.415
  O       -0.051     144.964     222.247
  C        1.736     146.577     222.810
  N        2.488     142.942     226.286
  C        2.599     142.942     224.941
  N        2.433     143.975     224.088
  C        2.184     145.110     224.765
  C        2.046     145.270     226.133
  C        2.194     144.107     226.910
  N        2.013     144.083     228.276
  N        1.736     146.582     226.437
  C        1.664     147.195     225.272
  N        1.924     146.345     224.231
  O       -1.099     151.793     222.189
  O       -2.370     150.602     224.073
  H        0.687     144.516     221.788
  H       -1.749     152.498     222.360
  H        2.845     141.983     224.485
  H        1.398     148.234     225.125
  H        2.432     145.922     222.272
  H       -0.405     146.771     223.155
  H       -0.834     147.439     220.889
  H        1.798     148.455     220.475
  H        1.237     150.386     221.871
  H        2.032     143.187     228.737
  H        1.688     144.918     228.741
  H       -0.160     149.946     220.856
  P       -0.127     146.302     218.679
  C        2.131     146.675     217.432
  O        0.884     145.988     217.476
  O       -0.502     147.843     218.455
  O       -1.344     145.437     218.726
  H       -1.367     147.917     218.010
  H        2.685     146.355     216.574
  H        2.689     146.458     218.319
  H        1.956     147.729     217.370

 6  7  8  9  10  11  12  13  14  15  25  28  32  33  34  35 0
 6-311+G(2d,p)
 ****
 36  39  40 0
 6-311+G(2d,p)
 ****
 1  2  3  4  5  16  17  18  19  20  21  22  23  24 0
 3-21G
 ****
 26  27  29  30  31  37  38  41  42  43  44  45  46  47 0
 3-21G
 ****
 48 0
 3-21G
 ****


