%nproc=1
%NoSave
%Mem=1900MB
#P OB98/GEN NMR

erre ene a

0 1
  C     -100.671      21.878     -17.502
  O      -99.397      22.359     -17.883
  H     -100.542      20.921     -16.987
  H     -101.289      21.719     -18.389
  H     -101.159      22.583     -16.824
  P      -99.342      23.847     -18.493
  C      -97.053      24.349     -17.311
  O      -97.788      24.241     -18.517
  C      -95.748      25.111     -17.544
  O      -94.851      24.273     -18.313
  C      -95.927      26.425     -18.305
  O      -95.012      27.386     -17.775
  C      -95.538      26.069     -19.729
  O      -95.119      27.214     -20.469
  C      -94.459      25.002     -19.494
  N      -94.298      24.112     -20.642
  C      -93.251      23.187     -20.581
  O      -92.503      23.163     -19.604
  N      -93.047      22.343     -21.644
  C      -93.781      22.460     -22.708
  N      -93.515      21.609     -23.735
  C      -94.861      23.457     -22.838
  C      -95.070      24.233     -21.777
  O      -99.938      24.713     -17.287
  O     -100.066      24.004     -19.788
  H      -94.279      27.540     -20.077
  H      -99.618      24.436     -16.413
  H      -95.436      23.526     -23.752
  H      -95.850      24.988     -21.784
  H      -93.488      25.474     -19.287
  H      -96.397      25.628     -20.252
  H      -96.943      26.820     -18.255
  H      -95.267      25.278     -16.574
  H      -92.752      20.953     -23.613
  H      -96.827      23.354     -16.914
  H      -93.986      21.644     -24.627
  H      -97.675      24.876     -16.580
  P      -95.575      28.781     -17.223
  C      -93.776      29.003     -15.388
  O      -94.374      29.591     -16.533
  O      -96.828      28.703     -16.416
  O      -95.824      29.623     -18.570
  H      -96.644      30.141     -18.453
  H      -92.995      29.639     -15.027
  H      -93.367      28.049     -15.649
  H      -94.515      28.878     -14.624

 6  7  8  9  10  11  12  13  14  15  16  26  30  31  32  33  35 0
 6-311+G(2d,p)
 ****
 37  38 0
 6-311+G(2d,p)
 ****
 1  2  3  4  5  17  18  19  20  21  22  23  24  25 0
 3-21G
 ****
 27  28  29  34  36  39  40  41  42  43  44  45  46 0
 3-21G
 ****


