%nproc=1
%NoSave
%Mem=1900MB
#P OB98/GEN NMR

erre ene a

0 1
  C        1.889       0.844    -325.011
  O        0.686       1.531    -324.671
  P        0.770       2.747    -323.629
  C       -1.051       1.943    -321.984
  O       -0.669       2.929    -322.937
  C       -2.435       2.269    -321.398
  O       -3.454       1.876    -322.360
  C       -2.781       1.518    -320.104
  O       -2.413       2.115    -318.861
  C       -4.307       1.526    -320.154
  O       -4.807       2.776    -319.647
  C       -4.620       1.418    -321.644
  N       -8.358      -2.071    -321.891
  C       -8.335      -0.801    -321.430
  N       -7.298       0.060    -321.399
  C       -6.196      -0.499    -321.927
  C       -6.071      -1.778    -322.443
  C       -7.218      -2.589    -322.410
  N       -7.240      -3.884    -322.873
  N       -4.784      -1.999    -322.891
  C       -4.143      -0.875    -322.632
  N       -4.955       0.067    -322.063
  O        1.402       3.999    -324.134
  O        1.638       2.116    -322.435
  H       -5.733       2.847    -319.947
  H        2.229       2.805    -322.075
  H       -9.273      -0.432    -321.025
  H       -3.095      -0.703    -322.837
  H       -5.458       2.059    -321.944
  H       -4.749       0.737    -319.535
  H       -2.413       0.486    -320.138
  H       -2.517       3.349    -321.238
  H       -0.312       1.908    -321.179
  H       -8.091      -4.412    -322.772
  H       -6.384      -4.307    -323.211
  H       -1.021       0.974    -322.482
  P       -1.830       1.236    -317.655
  C       -3.389       2.510    -315.981
  O       -2.084       2.106    -316.331
  O       -0.429       0.769    -317.832
  O       -2.914       0.063    -317.525
  H       -3.780       0.353    -317.205
  H       -3.375       2.896    -314.956
  H       -4.084       1.667    -316.030
  H       -3.719       3.308    -316.652
  H        1.669       0.065    -325.711
  H        2.319       0.419    -324.128
  H        2.581       1.532    -325.449

 3  4  5  6  7  8  9  10  11  12  22  25  29  30  31  32 0
 6-311+G(2d,p)
 ****
 33  36  37 0
 6-311+G(2d,p)
 ****
 1  2  13  14  15  16  17  18  19  20  21  23  24  26 0
 3-21G
 ****
 27  28  34  35  38  39  40  41  42  43  44  45  46  47  48 0
 3-21G
 ****


