%nproc=1
%NoSave
%Mem=1900MB
#P OB98/GEN NMR

erre ene a

0 1
  C      -84.994     -63.645     368.759
  O      -85.096     -64.843     369.509
  H      -84.279     -62.981     369.254
  H      -85.960     -63.135     368.707
  H      -84.634     -63.860     367.749
  P      -86.201     -65.918     369.072
  C      -88.381     -65.296     370.319
  O      -87.602     -65.147     369.136
  C      -89.788     -64.746     370.095
  O      -89.738     -63.323     369.887
  C      -90.467     -65.325     368.863
  O      -90.925     -66.641     369.108
  C      -91.547     -64.291     368.622
  O      -92.669     -64.490     369.495
  C      -90.804     -62.980     368.972
  N      -90.286     -62.295     367.791
  C      -91.167     -61.420     367.150
  O      -92.307     -61.256     367.583
  N      -90.735     -60.770     366.019
  C      -89.533     -60.960     365.580
  N      -89.172     -60.288     364.453
  C      -88.565     -61.861     366.233
  C      -89.004     -62.492     367.323
  O      -86.186     -67.233     369.790
  O      -85.955     -66.092     367.498
  H      -93.067     -65.341     369.226
  H      -85.308     -66.803     367.330
  H      -87.571     -61.986     365.833
  H      -88.356     -63.171     367.866
  H      -91.469     -62.289     369.503
  H      -91.915     -64.326     367.599
  H      -89.782     -65.305     368.009
  H      -90.380     -64.935     371.000
  H      -89.869     -59.688     364.032
  H      -87.876     -64.736     371.111
  H      -88.236     -60.285     364.074
  H      -88.431     -66.351     370.618
  P      -91.533     -67.527     367.919
  C      -93.998     -67.778     368.650
  O      -93.074     -67.088     367.804
  O      -91.292     -68.995     368.029
  O      -90.881     -66.872     366.609
  H      -89.926     -67.116     366.517
  H      -94.985     -67.400     368.483
  H      -93.726     -67.626     369.674
  H      -93.974     -68.824     368.426

 6  7  8  9  10  11  12  13  14  15  16  26  30  31  32  33  35 0
 6-311+G(2d,p)
 ****
 37  38 0
 6-311+G(2d,p)
 ****
 1  2  3  4  5  17  18  19  20  21  22  23  24  25 0
 3-21G
 ****
 27  28  29  34  36  39  40  41  42  43  44  45  46 0
 3-21G
 ****


