%nproc=1
%NoSave
%Mem=1900MB
#P OB98/GEN NMR

erre ene a

0 1
  C      -38.553     -55.066    -461.491
  O      -39.195     -55.440    -462.702
  P      -40.096     -54.396    -463.506
  C      -42.602     -53.614    -463.412
  O      -41.590     -54.491    -462.959
  C      -43.906     -53.934    -462.672
  O      -43.758     -53.660    -461.259
  C      -45.071     -53.098    -463.193
  O      -45.793     -53.811    -464.184
  C      -45.873     -52.824    -461.939
  O      -46.712     -53.948    -461.619
  C      -44.757     -52.674    -460.881
  N      -44.081     -51.368    -460.757
  C      -44.729     -50.313    -460.112
  O      -45.838     -50.408    -459.601
  N      -44.050     -49.119    -460.098
  C      -42.803     -48.903    -460.616
  O      -42.317     -47.792    -460.816
  C      -42.071     -50.104    -461.028
  C      -42.736     -51.256    -461.102
  O      -40.192     -55.053    -464.964
  O      -39.567     -52.996    -463.558
  H      -47.303     -53.668    -460.893
  H      -39.552     -54.638    -465.570
  H      -44.577     -48.318    -459.763
  H      -41.035     -50.003    -461.314
  H      -42.231     -52.153    -461.446
  H      -45.119     -52.942    -459.881
  H      -46.539     -51.974    -462.072
  H      -44.700     -52.140    -463.590
  H      -44.125     -55.006    -462.785
  H      -42.737     -53.724    -464.492
  H      -42.307     -52.573    -463.228
  P      -47.138     -53.186    -464.782
  C      -49.250     -52.415    -463.549
  O      -48.250     -53.407    -463.642
  O      -47.521     -53.661    -466.144
  O      -46.859     -51.608    -464.759
  H      -46.566     -51.311    -465.648
  H      -50.032     -52.765    -462.873
  H      -49.695     -52.222    -464.534
  H      -48.823     -51.494    -463.151
  H      -38.001     -55.899    -461.108
  H      -39.289     -54.767    -460.775
  H      -37.885     -54.251    -461.678

 3  4  5  6  7  8  9  10  11  12  13  23  28  29  30  31  32 0
 6-311+G(2d,p)
 ****
 33  34 0
 6-311+G(2d,p)
 ****
 1  2  14  15  16  17  18  19  20  21  22  24  25  26  27 0
 3-21G
 ****
 35  36  37  38  39  40  41  42  43  44  45 0
 3-21G
 ****


