%nproc=1
%NoSave
%Mem=1900MB
#P OB98/GEN NMR

erre ene a

0 1
  C       -5.153      11.770       0.552
  O       -6.184      12.726       0.386
  H       -4.522      12.075       1.391
  H       -4.541      11.725      -0.352
  H       -5.576      10.785       0.766
  P       -7.351      12.343      -0.641
  C       -7.526      12.132      -3.249
  O       -6.692      12.270      -2.107
  C       -6.758      11.450      -4.378
  O       -6.245      10.173      -3.951
  C       -7.606      11.108      -5.592
  O       -7.954      12.246      -6.350
  C       -6.676      10.152      -6.326
  O       -5.728      10.854      -7.139
  C       -5.964       9.426      -5.158
  N       -6.374       8.038      -5.058
  C       -5.529       7.117      -5.692
  O       -4.510       7.505      -6.264
  N       -5.883       5.793      -5.692
  C       -6.993       5.423      -5.135
  N       -7.301       4.099      -5.199
  C       -7.912       6.360      -4.458
  C       -7.544       7.641      -4.458
  O       -8.216      13.686      -0.696
  O       -8.132      11.127      -0.275
  H       -5.173      10.170      -7.567
  H       -7.687      14.488      -0.839
  H       -8.819       5.999      -3.997
  H       -8.159       8.398      -3.983
  H       -4.875       9.453      -5.296
  H       -7.228       9.482      -6.988
  H       -8.498      10.547      -5.284
  H       -5.911      12.093      -4.652
  H       -6.671       3.501      -5.720
  H       -7.895      13.109      -3.577
  H       -8.172       3.710      -4.871
  H       -8.392      11.530      -2.958
  P       -9.025      12.160      -7.537
  C       -9.203      10.756      -9.690
  O       -8.328      11.337      -8.730
  O       -9.620      13.461      -7.956
  O      -10.093      11.101      -6.985
  H       -9.731      10.221      -6.785
  H       -8.628      10.238     -10.429
  H       -9.778      11.526     -10.160
  H       -9.861      10.067      -9.202

 6  7  8  9  10  11  12  13  14  15  16  26  30  31  32  33  35 0
 6-311+G(2d,p)
 ****
 37  38 0
 6-311+G(2d,p)
 ****
 1  2  3  4  5  17  18  19  20  21  22  23  24  25 0
 3-21G
 ****
 27  28  29  34  36  39  40  41  42  43  44  45  46 0
 3-21G
 ****


