%nproc=1
%NoSave
%Mem=1900MB
#P OB98/GEN NMR

erre ene a

0 1
  C       80.581      84.544     -63.315
  O       81.392      85.202     -62.363
  H       80.217      83.610     -62.879
  H       81.156      84.307     -64.215
  H       79.720      85.166     -63.577
  P       82.116      86.565     -62.788
  C       81.315      88.911     -63.532
  O       80.960      87.551     -63.298
  C       80.709      89.405     -64.843
  O       81.397      88.819     -65.966
  C       79.238      89.047     -65.025
  O       78.421      89.872     -64.221
  C       79.088      89.239     -66.525
  O       78.964      90.631     -66.856
  C       80.435      88.674     -67.038
  N       80.355      87.284     -67.477
  C       80.550      87.060     -68.845
  O       80.758      88.004     -69.606
  N       80.482      85.769     -69.311
  C       80.285      84.789     -68.487
  N       80.234      83.536     -69.012
  C       80.110      84.981     -67.034
  C       80.145      86.240     -66.604
  O       83.275      86.433     -63.729
  O       82.560      87.218     -61.395
  H       79.782      91.060     -66.535
  H       83.478      86.970     -61.179
  H       79.958      84.133     -66.381
  H       80.025      86.468     -65.549
  H       80.807      89.275     -67.879
  H       78.206      88.736     -66.921
  H       79.075      87.988     -64.795
  H       80.857      90.492     -64.896
  H       80.380      83.453     -70.013
  H       82.408      88.954     -63.582
  H       80.249      82.694     -68.454
  H       80.982      89.545     -62.701
  P       76.906      89.474     -63.875
  C       75.861      87.515     -62.579
  O       76.963      87.955     -63.357
  O       75.918      89.731     -64.962
  O       76.601      90.287     -62.531
  H       76.427      91.239     -62.736
  H       76.011      86.495     -62.294
  H       74.963      87.596     -63.155
  H       75.779      88.122     -61.702

 6  7  8  9  10  11  12  13  14  15  16  26  30  31  32  33  35 0
 6-311+G(2d,p)
 ****
 37  38 0
 6-311+G(2d,p)
 ****
 1  2  3  4  5  17  18  19  20  21  22  23  24  25 0
 3-21G
 ****
 27  28  29  34  36  39  40  41  42  43  44  45  46 0
 3-21G
 ****


