%nproc=1
%NoSave
%Mem=1900MB
#P OB98/GEN NMR

erre ene a

0 1
  C        7.776       9.000       1.747
  O        8.997       8.282       1.561
  P       10.258       8.637       2.484
  C       11.491      10.282       0.932
  O       10.750      10.125       2.134
  C       12.298      11.587       0.957
  O       13.140      11.692      -0.227
  C       11.402      12.832       0.984
  O       12.026      13.887       1.734
  C       11.371      13.257      -0.471
  O       11.003      14.626      -0.614
  C       12.801      12.925      -0.894
  N       13.011      15.405      -5.369
  C       12.937      15.853      -4.096
  N       12.908      15.135      -2.954
  C       12.979      13.820      -3.218
  C       13.067      13.216      -4.463
  C       13.074      14.070      -5.579
  N       13.120      13.612      -6.876
  N       13.115      11.842      -4.341
  C       13.009      11.620      -3.047
  N       12.957      12.782      -2.326
  O       11.338       7.610       2.526
  O        9.593       8.828       3.932
  H       10.171      14.758      -0.124
  H       10.167       8.410       4.604
  H       12.890      16.932      -3.981
  H       12.950      10.645      -2.584
  H       13.512      13.689      -0.557
  H       10.644      12.647      -1.020
  H       10.399      12.663       1.385
  H       12.967      11.576       1.825
  H       10.811      10.282       0.078
  H       13.004      14.292      -7.612
  H       13.018      12.622      -7.048
  H       12.143       9.413       0.797
  P       11.176      14.470       2.972
  C       10.298      16.677       1.883
  O       10.021      15.367       2.322
  O       12.017      15.129       4.014
  O       10.416      13.162       3.494
  H        9.954      12.656       2.804
  H        9.421      17.066       1.360
  H       11.146      16.686       1.192
  H       10.512      17.324       2.738
  H        7.042       8.641       1.055
  H        7.946      10.043       1.578
  H        7.425       8.854       2.747

 3  4  5  6  7  8  9  10  11  12  22  25  29  30  31  32 0
 6-311+G(2d,p)
 ****
 33  36  37 0
 6-311+G(2d,p)
 ****
 1  2  13  14  15  16  17  18  19  20  21  23  24  26 0
 3-21G
 ****
 27  28  34  35  38  39  40  41  42  43  44  45  46  47  48 0
 3-21G
 ****


