%nproc=1
%NoSave
%Mem=1900MB
#P OB98/GEN NMR

erre ene a

0 1
  C      208.547     408.972     736.519
  O      208.228     410.309     736.845
  H      209.044     408.959     735.546
  H      207.634     408.375     736.450
  H      209.221     408.538     737.263
  P      207.638     410.630     738.301
  C      208.031     413.093     737.652
  O      207.162     412.160     738.287
  C      207.385     414.478     737.649
  O      206.944     414.823     738.981
  C      208.332     415.595     737.230
  O      208.552     415.598     735.836
  C      207.597     416.810     737.773
  O      206.560     417.230     736.876
  C      206.994     416.262     739.088
  N      207.764     416.682     740.259
  C      207.882     418.055     740.456
  O      207.373     418.895     739.716
  N      208.664     418.438     741.516
  C      209.433     417.607     742.279
  O      210.300     418.005     743.044
  C      209.221     416.167     742.063
  C      208.418     415.777     741.072
  O      208.508     410.247     739.449
  O      206.250     409.826     738.326
  H      206.367     409.003     738.841
  H      206.977     417.277     735.991
  H      208.790     419.433     741.639
  H      209.754     415.470     742.703
  H      208.268     414.718     740.874
  H      205.958     416.607     739.205
  H      208.272     417.655     737.922
  H      209.288     415.491     737.761
  H      206.502     414.448     736.995
  H      208.201     412.771     736.621
  H      208.988     413.110     738.188
  P      209.750     416.450     735.204
  C      209.941     414.863     733.190
  O      209.762     416.211     733.621
  O      211.076     416.278     735.874
  O      209.252     417.966     735.325
  H      209.959     418.502     735.735
  H      209.932     414.826     732.121
  H      209.147     414.257     733.574
  H      210.878     414.494     733.552

 6  7  8  9  10  11  12  13  14  15  16  27  31  32  33  34  35 0
 6-311+G(2d,p)
 ****
 36  37 0
 6-311+G(2d,p)
 ****
 1  2  3  4  5  17  18  19  20  21  22  23  24  25 0
 3-21G
 ****
 26  28  29  30  38  39  40  41  42  43  44  45 0
 3-21G
 ****


