%nproc=1
%NoSave
%Mem=1900MB
#P OB98/GEN NMR

erre ene a

0 1
  C      330.072     239.249    -464.153
  O      330.444     239.148    -465.524
  P      329.311     239.442    -466.624
  C      329.292     240.572    -468.967
  O      330.049     240.243    -467.805
  C      330.220     240.853    -470.143
  O      330.996     242.041    -469.889
  C      331.235     239.758    -470.435
  O      330.681     238.697    -471.198
  C      332.255     240.518    -471.257
  O      331.796     240.660    -472.611
  C      332.277     241.888    -470.557
  N      337.125     243.365    -469.843
  C      336.358     243.294    -470.959
  N      335.077     242.869    -471.067
  C      334.605     242.472    -469.874
  C      335.283     242.455    -468.666
  C      336.600     242.937    -468.669
  N      337.369     243.044    -467.529
  N      334.466     241.975    -467.660
  C      333.319     241.719    -468.250
  N      333.346     242.010    -469.588
  O      328.410     240.568    -465.928
  O      328.510     238.253    -467.038
  H      332.463     241.197    -473.084
  H      327.517     240.568    -466.312
  H      336.837     243.611    -471.878
  H      332.436     241.330    -467.754
  H      332.380     242.715    -471.267
  H      333.229     240.019    -471.306
  H      331.702     239.396    -469.508
  H      329.592     241.040    -471.029
  H      328.691     241.455    -468.762
  H      338.226     243.566    -467.590
  H      336.909     242.920    -466.634
  H      328.627     239.729    -469.203
  P      331.500     237.315    -471.229
  C      330.822     234.831    -471.602
  O      330.398     236.172    -471.404
  O      331.993     237.154    -469.714
  O      332.637     237.302    -472.199
  H      332.803     236.604    -469.676
  H      329.988     234.164    -471.395
  H      331.649     234.583    -470.929
  H      331.145     234.690    -472.644
  H      330.918     239.029    -463.537
  H      329.288     238.552    -463.944
  H      329.730     240.242    -463.948

 3  4  5  6  7  8  9  10  11  12  22  25  29  30  31  32 0
 6-311+G(2d,p)
 ****
 33  36  37 0
 6-311+G(2d,p)
 ****
 1  2  13  14  15  16  17  18  19  20  21  23  24  26 0
 3-21G
 ****
 27  28  34  35  38  39  40  41  42  43  44  45  46  47  48 0
 3-21G
 ****


