%nproc=1
%NoSave
%Mem=1900MB
#P OB98/GEN NMR

erre ene a

0 1
  C       49.126    -253.491      74.442
  O       49.409    -254.483      75.421
  P       50.539    -254.148      76.515
  C       52.415    -255.367      75.194
  O       51.926    -254.134      75.711
  C       53.682    -255.141      74.376
  O       53.413    -254.243      73.281
  C       54.831    -254.514      75.149
  O       55.553    -255.470      75.907
  C       55.687    -253.980      74.012
  O       56.455    -255.055      73.435
  C       54.629    -253.493      73.016
  N       56.124    -248.826      71.561
  C       56.651    -250.048      71.340
  N       56.199    -251.244      71.771
  C       55.105    -251.092      72.535
  C       54.477    -249.906      72.877
  C       55.023    -248.726      72.345
  N       54.469    -247.483      72.546
  N       53.384    -250.150      73.681
  C       53.343    -251.456      73.813
  N       54.358    -252.074      73.131
  O       50.621    -255.499      77.371
  O       50.257    -252.958      77.366
  H       56.991    -255.439      74.155
  H       50.983    -255.309      78.256
  H       57.549    -250.070      70.730
  H       52.601    -252.000      74.380
  H       54.912    -253.691      71.976
  H       56.399    -253.218      74.338
  H       54.484    -253.677      75.769
  H       53.985    -256.108      73.951
  H       51.648    -255.811      74.551
  H       54.807    -246.719      71.986
  H       53.542    -247.437      72.959
  H       52.613    -256.051      76.026
  P       56.053    -255.010      77.364
  C       58.242    -253.978      76.416
  O       57.023    -253.763      77.104
  O       57.042    -256.190      77.794
  O       54.953    -254.801      78.348
  H       57.098    -256.251      78.766
  H       58.618    -253.018      76.058
  H       58.100    -254.641      75.559
  H       58.981    -254.412      77.099
  H       48.360    -253.847      73.785
  H       50.011    -253.283      73.878
  H       48.793    -252.597      74.926

 3  4  5  6  7  8  9  10  11  12  22  25  29  30  31  32 0
 6-311+G(2d,p)
 ****
 33  36  37 0
 6-311+G(2d,p)
 ****
 1  2  13  14  15  16  17  18  19  20  21  23  24  26 0
 3-21G
 ****
 27  28  34  35  38  39  40  41  42  43  44  45  46  47  48 0
 3-21G
 ****


