%nproc=1
%NoSave
%Mem=1900MB
#P OB98/GEN NMR

erre ene a

0 1
  C     -525.022    -521.711    -259.413
  O     -525.382    -520.948    -258.281
  P     -525.634    -521.663    -256.862
  C     -527.812    -520.561    -256.028
  O     -526.388    -520.585    -255.941
  C     -528.409    -520.259    -254.656
  O     -528.048    -521.272    -253.691
  C     -527.921    -518.956    -254.035
  O     -528.283    -517.754    -254.677
  C     -528.369    -519.128    -252.592
  O     -529.750    -518.805    -252.432
  C     -528.134    -520.647    -252.381
  N     -526.949    -520.912    -251.573
  C     -526.657    -519.979    -250.593
  O     -527.328    -518.969    -250.391
  N     -525.520    -520.217    -249.855
  C     -524.649    -521.251    -250.039
  O     -523.626    -521.383    -249.366
  C     -525.012    -522.208    -251.094
  C     -526.118    -522.005    -251.805
  O     -524.432    -522.291    -256.240
  O     -526.815    -522.701    -257.183
  H     -529.844    -517.852    -252.609
  H     -527.640    -522.301    -257.521
  H     -525.281    -519.536    -249.148
  H     -524.345    -523.047    -251.253
  H     -526.407    -522.697    -252.602
  H     -529.003    -521.100    -251.877
  H     -527.800    -518.484    -251.916
  H     -526.824    -518.966    -254.043
  H     -529.501    -520.273    -254.748
  H     -528.158    -521.535    -256.362
  H     -528.123    -519.820    -256.772
  P     -527.351    -517.028    -255.770
  C     -526.348    -514.994    -254.502
  O     -527.309    -515.463    -255.426
  O     -527.563    -517.410    -257.199
  O     -525.893    -517.497    -255.312
  H     -525.319    -517.566    -256.100
  H     -526.491    -513.922    -254.357
  H     -525.340    -515.166    -254.880
  H     -526.488    -515.490    -253.531
  H     -524.899    -521.063    -260.256
  H     -525.791    -522.425    -259.621
  H     -524.103    -522.223    -259.220

 3  4  5  6  7  8  9  10  11  12  13  23  28  29  30  31  32 0
 6-311+G(2d,p)
 ****
 33  34 0
 6-311+G(2d,p)
 ****
 1  2  14  15  16  17  18  19  20  21  22  24  25  26  27 0
 3-21G
 ****
 35  36  37  38  39  40  41  42  43  44  45 0
 3-21G
 ****


