%nproc=1
%NoSave
%Mem=1900MB
#P OB98/GEN NMR

erre ene a

0 1
  C     -248.119     104.436    -315.116
  O     -249.343     104.599    -314.428
  H     -248.205     103.568    -315.779
  H     -247.300     104.257    -314.413
  H     -247.901     105.318    -315.725
  P     -249.449     105.760    -313.330
  C     -249.682     107.506    -315.228
  O     -248.978     107.112    -314.052
  C     -248.967     108.661    -315.921
  O     -249.609     108.969    -317.175
  C     -248.967     109.961    -315.123
  O     -248.036     109.895    -314.061
  C     -248.630     110.959    -316.221
  O     -247.227     110.944    -316.522
  C     -249.448     110.389    -317.406
  N     -250.747     111.036    -317.583
  C     -250.720     112.366    -318.015
  O     -249.642     112.932    -318.213
  N     -251.913     113.021    -318.194
  C     -253.030     112.398    -318.006
  N     -254.178     113.099    -318.206
  C     -253.107     110.984    -317.583
  C     -251.939     110.373    -317.382
  O     -248.775     105.495    -312.019
  O     -251.026     105.976    -313.149
  H     -247.109     111.519    -317.304
  H     -251.363     105.444    -312.402
  H     -254.063     110.499    -317.451
  H     -251.905     109.334    -317.074
  H     -248.885     110.492    -318.344
  H     -248.887     111.982    -315.946
  H     -249.972     110.182    -314.754
  H     -247.941     108.336    -316.148
  H     -254.078     114.063    -318.514
  H     -250.685     107.820    -314.911
  H     -255.094     112.680    -318.247
  H     -249.787     106.660    -315.915
  P     -248.228     110.749    -312.718
  C     -249.107     108.754    -311.349
  O     -249.414     110.023    -311.909
  O     -248.411     112.217    -312.920
  O     -246.940     110.381    -311.846
  H     -246.147     110.868    -312.181
  H     -249.966     108.372    -310.839
  H     -248.297     108.856    -310.657
  H     -248.826     108.078    -312.130

 6  7  8  9  10  11  12  13  14  15  16  26  30  31  32  33  35 0
 6-311+G(2d,p)
 ****
 37  38 0
 6-311+G(2d,p)
 ****
 1  2  3  4  5  17  18  19  20  21  22  23  24  25 0
 3-21G
 ****
 27  28  29  34  36  39  40  41  42  43  44  45  46 0
 3-21G
 ****


