%nproc=1
%NoSave
%Mem=1900MB
#P OB98/GEN NMR

erre ene a

0 1
  C      808.669     728.984    1885.954
  O      810.035     728.835    1885.637
  H      808.570     729.766    1886.714
  H      808.264     728.059    1886.370
  H      808.095     729.276    1885.074
  P      810.460     727.690    1884.579
  C      810.260     729.596    1882.830
  O      810.031     728.211    1883.134
  C      809.753     729.927    1881.440
  O      810.255     728.918    1880.519
  C      808.199     729.936    1881.338
  O      807.684     731.157    1880.800
  C      807.905     728.626    1880.644
  O      806.653     728.624    1879.935
  C      809.128     728.396    1879.750
  N      809.367     726.992    1879.424
  C      809.162     726.603    1878.093
  O      808.798     727.374    1877.178
  N      809.390     725.300    1877.824
  C      809.778     724.299    1878.717
  O      809.952     723.170    1878.415
  C      809.943     724.783    1880.100
  C      809.742     726.084    1880.408
  O      809.982     726.308    1884.917
  O      812.058     727.774    1884.543
  H      806.462     727.702    1879.721
  H      812.430     727.025    1885.041
  H      809.278     725.033    1876.874
  H      810.252     724.066    1880.848
  H      809.866     726.435    1881.423
  H      809.071     728.962    1878.839
  H      807.835     727.826    1881.402
  H      807.761     729.905    1882.348
  H      810.173     730.910    1881.140
  H      811.347     729.768    1882.900
  H      809.754     730.202    1883.578
  P      807.804     732.601    1881.495
  C      809.257     733.568    1879.507
  O      809.106     733.317    1880.893
  O      807.605     732.654    1882.976
  O      806.589     733.418    1880.792
  H      806.297     734.063    1881.474
  H      810.196     734.051    1879.332
  H      808.462     734.200    1879.170
  H      809.227     732.642    1878.972

 6  7  8  9  10  11  12  13  14  15  16  26  31  32  33  34  35 0
 6-311+G(2d,p)
 ****
 36  37 0
 6-311+G(2d,p)
 ****
 1  2  3  4  5  17  18  19  20  21  22  23  24  25 0
 3-21G
 ****
 27  28  29  30  38  39  40  41  42  43  44  45 0
 3-21G
 ****


