%nproc=1
%NoSave
%Mem=1900MB
#P OB98/GEN NMR

erre ene a

0 1
  C      -55.804      89.560    -147.635
  O      -56.206      90.644    -148.449
  H      -56.367      88.671    -147.927
  H      -56.028      89.788    -146.588
  H      -54.735      89.358    -147.754
  P      -55.301      91.966    -148.407
  C      -53.530      90.797    -149.896
  O      -54.359      91.934    -149.710
  C      -53.458      90.427    -151.380
  O      -54.742      89.873    -151.782
  C      -53.157      91.616    -152.303
  O      -52.290      91.175    -153.355
  C      -54.517      91.975    -152.876
  O      -54.424      92.636    -154.138
  C      -55.188      90.604    -152.937
  N      -59.278      90.414    -155.880
  C      -57.953      90.150    -156.176
  N      -57.674      89.791    -157.448
  N      -56.986      90.236    -155.297
  C      -57.420      90.573    -154.056
  C      -58.698      90.864    -153.641
  C      -59.756      90.792    -154.629
  O      -60.943      91.038    -154.437
  N      -58.727      91.196    -152.308
  C      -57.466      91.109    -151.922
  N      -56.638      90.727    -152.943
  O      -54.285      91.674    -147.202
  O      -56.043      93.245    -148.196
  H      -53.628      92.286    -154.595
  H      -54.437      92.311    -146.480
  H      -59.980      90.348    -156.599
  H      -57.101      91.316    -150.925
  H      -54.907      90.040    -153.834
  H      -55.046      92.639    -152.182
  H      -58.373      89.657    -158.161
  H      -52.694      92.457    -151.782
  H      -56.711      89.554    -157.676
  H      -52.715      89.630    -151.507
  H      -53.945      89.959    -149.330
  H      -52.523      91.017    -149.522
  P      -50.822      91.821    -153.408
  C      -49.746      89.893    -152.050
  O      -49.742      90.640    -153.260
  O      -50.719      92.604    -152.015
  O      -50.606      92.740    -154.570
  H      -50.767      93.568    -152.173
  H      -48.981      89.146    -152.089
  H      -50.698      89.422    -151.925
  H      -49.562      90.549    -151.225

 6  7  8  9  10  11  12  13  14  15  26  29  33  34 0
 6-311+G(2d,p)
 ****
 36  38  39  40  41 0
 6-311+G(2d,p)
 ****
 1  2  3  4  5  16  17  18  19  20  21  22  23  24  25 0
 3-21G
 ****
 27  28  30  31  32  35  37  42  43  44  45  46  47 0
 3-21G
 ****
 48  49 0
 3-21G
 ****


