%nproc=1
%NoSave
%Mem=1900MB
#P OB98/GEN NMR

erre ene a

0 1
  C     -101.605      98.786    -202.408
  O     -100.956      99.742    -201.594
  H     -101.059      97.839    -202.380
  H     -102.615      98.623    -202.024
  H     -101.672      99.148    -203.437
  P      -99.443     100.103    -201.991
  C      -97.174     100.044    -200.750
  O      -98.511      99.571    -200.793
  C      -96.326      99.133    -199.863
  O      -96.760      99.314    -198.488
  C      -96.435      97.640    -200.207
  O      -95.132      97.054    -200.336
  C      -97.122      97.028    -198.999
  O      -96.671      95.712    -198.710
  C      -96.775      98.012    -197.886
  N      -97.279      98.059    -192.813
  C      -96.283      98.487    -193.613
  N      -96.249      98.536    -194.960
  C      -97.415      98.111    -195.482
  C      -98.530      97.662    -194.790
  C      -98.427      97.625    -193.389
  N      -99.422      97.136    -192.574
  N      -99.536      97.299    -195.666
  C      -99.017      97.479    -196.865
  N      -97.735      97.955    -196.804
  O      -99.393     101.698    -201.829
  O      -99.044      99.680    -203.364
  H      -96.629      95.226    -199.552
  H      -99.179     102.095    -202.694
  H      -95.385      98.836    -193.105
  H      -99.508      97.243    -197.801
  H      -95.778      97.824    -197.472
  H      -98.203      96.996    -199.178
  H      -97.006      97.460    -201.122
  H      -95.281      99.465    -199.916
  H      -97.155     101.059    -200.340
  H      -99.221      97.037    -191.591
  H     -100.233      96.710    -193.006
  H      -96.768     100.067    -201.767
  P      -94.724      96.552    -201.809
  C      -95.060      94.410    -203.242
  O      -95.340      95.082    -202.021
  O      -93.148      96.300    -201.683
  O      -95.035      97.534    -202.887
  H      -92.674      96.823    -202.356
  H      -95.533      93.450    -203.238
  H      -94.002      94.285    -203.346
  H      -95.433      94.988    -204.061

 6  7  8  9  10  11  12  13  14  15  25  28  32  33  34  35 0
 6-311+G(2d,p)
 ****
 36  39  40 0
 6-311+G(2d,p)
 ****
 1  2  3  4  5  16  17  18  19  20  21  22  23  24 0
 3-21G
 ****
 26  27  29  30  31  37  38  41  42  43  44  45  46  47  48 0
 3-21G
 ****


