%nproc=1
%NoSave
%Mem=1900MB
#P OB98/GEN NMR

erre ene a

0 1
  C      645.171    -305.919     209.589
  O      645.584    -305.912     208.214
  P      645.627    -304.561     207.350
  C      645.419    -305.802     205.089
  O      646.193    -304.897     205.883
  C      646.271    -306.499     204.034
  O      647.260    -307.354     204.654
  C      645.487    -307.389     203.071
  O      644.838    -306.601     202.082
  C      646.583    -308.315     202.557
  O      647.338    -307.667     201.516
  C      647.449    -308.508     203.804
  N      648.242    -313.559     203.965
  C      648.716    -312.601     203.139
  N      648.449    -311.269     203.162
  C      647.628    -310.967     204.178
  C      647.064    -311.835     205.101
  C      647.397    -313.202     204.968
  N      646.913    -314.182     205.805
  N      646.245    -311.166     205.980
  C      646.324    -309.894     205.607
  N      647.155    -309.728     204.526
  O      646.318    -303.418     208.026
  O      644.089    -304.202     207.074
  H      647.490    -306.741     201.801
  H      643.987    -303.234     206.968
  H      649.387    -312.936     202.361
  H      645.827    -309.077     206.092
  H      648.520    -308.534     203.550
  H      646.186    -309.250     202.138
  H      644.746    -307.974     203.625
  H      646.820    -305.732     203.481
  H      644.618    -305.238     204.606
  H      647.166    -315.136     205.619
  H      646.244    -313.926     206.512
  H      644.967    -306.542     205.771
  P      643.459    -307.088     201.436
  C      644.024    -307.378     198.943
  O      643.430    -306.546     199.929
  O      642.238    -306.815     202.241
  O      643.676    -308.671     201.237
  H      642.815    -309.124     201.295
  H      645.113    -307.245     198.968
  H      643.651    -307.083     197.956
  H      643.779    -308.425     199.122
  H      645.217    -306.918     209.970
  H      644.167    -305.555     209.662
  H      645.821    -305.289     210.160

 3  4  5  6  7  8  9  10  11  12  22  25  29  30  31  32 0
 6-311+G(2d,p)
 ****
 33  36  37 0
 6-311+G(2d,p)
 ****
 1  2  13  14  15  16  17  18  19  20  21  23  24  26 0
 3-21G
 ****
 27  28  34  35  38  39  40  41  42  43  44  45  46  47  48 0
 3-21G
 ****


