%nproc=1
%NoSave
%Mem=1900MB
#P OB98/GEN NMR

erre ene a

0 1
  C     -558.692      -9.056     308.602
  O     -558.234      -8.417     307.419
  H     -559.565      -8.513     308.980
  H     -557.905      -9.024     309.366
  H     -558.974     -10.091     308.388
  P     -556.957      -9.071     306.701
  C     -558.053      -9.811     304.439
  O     -557.197      -8.901     305.128
  C     -558.343      -9.320     303.029
  O     -559.320      -8.234     303.097
  C     -557.113      -8.765     302.285
  O     -557.316      -8.984     300.884
  C     -557.223      -7.270     302.600
  O     -556.378      -6.518     301.758
  C     -558.732      -7.088     302.438
  N     -559.378      -2.064     301.749
  C     -558.905      -3.036     300.935
  N     -558.779      -4.344     301.182
  C     -559.220      -4.648     302.416
  C     -559.738      -3.769     303.362
  C     -559.812      -2.411     302.995
  N     -560.286      -1.428     303.821
  N     -560.088      -4.448     304.531
  C     -559.776      -5.702     304.287
  N     -559.239      -5.865     303.030
  O     -557.163     -10.644     306.953
  O     -555.625      -8.593     307.191
  H     -556.549      -5.555     301.864
  H     -556.670     -10.922     307.734
  H     -558.579      -2.690     299.951
  H     -559.916      -6.530     304.973
  H     -559.034      -7.105     301.381
  H     -556.903      -7.070     303.629
  H     -556.173      -9.225     302.603
  H     -558.818     -10.126     302.455
  H     -558.985      -9.904     305.014
  H     -557.569     -10.801     304.401
  H     -560.293      -0.471     303.483
  H     -560.599      -1.674     304.756
  P     -556.043      -8.878     299.897
  C     -556.311     -11.278     298.868
  O     -556.282      -9.855     298.646
  O     -554.913      -9.644     300.720
  O     -555.593      -7.479     299.551
  H     -554.013      -9.293     300.482
  H     -556.479     -11.781     297.938
  H     -557.100     -11.517     299.550
  H     -555.376     -11.594     299.281

 6  7  8  9  10  11  12  13  14  15  25  28  32  33  34  35 0
 6-311+G(2d,p)
 ****
 36  37  40 0
 6-311+G(2d,p)
 ****
 1  2  3  4  5  16  17  18  19  20  21  22  23  24 0
 3-21G
 ****
 26  27  29  30  31  38  39 41  42  43  44  45  46  47  48 0
 3-21G
 ****


