%nproc=1
%NoSave
%Mem=1900MB
#P OB98/GEN NMR

erre ene a

0 1
  C      389.824     215.931     177.833
  O      390.978     216.218     177.067
  H      389.949     216.356     178.839
  H      389.699     214.849     177.922
  H      388.937     216.374     177.375
  P      390.911     215.863     175.501
  C      391.347     218.303     174.727
  O      390.442     217.200     174.752
  C      392.174     218.281     173.436
  O      391.296     218.175     172.284
  C      393.018     219.528     173.211
  O      394.252     219.462     173.925
  C      393.248     219.441     171.707
  O      394.260     218.448     171.429
  C      391.877     218.963     171.212
  N      389.114     221.029     167.496
  C      389.941     219.920     167.474
  N      390.059     219.274     166.288
  N      390.601     219.483     168.514
  C      390.397     220.232     169.626
  C      389.601     221.344     169.777
  C      388.867     221.811     168.614
  O      388.102     222.771     168.584
  N      389.645     221.828     171.060
  C      390.477     221.019     171.679
  N      390.968     220.042     170.855
  O      389.619     214.915     175.390
  O      392.121     215.198     174.942
  H      394.209     218.240     170.480
  H      389.789     214.230     174.714
  H      388.630     221.326     166.657
  H      390.752     221.103     172.720
  H      391.963     218.313     170.330
  H      393.599     220.383     171.285
  H      389.611     219.588     165.444
  H      392.462     220.444     173.443
  H      390.639     218.447     166.256
  H      392.795     217.378     173.451
  H      392.023     218.233     175.580
  H      390.775     219.236     174.791
  P      394.981     220.852     174.274
  C      395.116     220.494     176.842
  O      394.526     221.219     175.764
  O      394.178     221.911     173.371
  O      396.449     220.876     174.007
  H      394.738     222.697     173.212
  H      394.717     220.847     177.770
  H      396.176     220.639     176.831
  H      394.897     219.452     176.733

 6  7  8  9  10  11  12  13  14  15  26  29  33  34 0
 6-311+G(2d,p)
 ****
 36  38  39  40  41 0
 6-311+G(2d,p)
 ****
 1  2  3  4  5  16  17  18  19  20  21  22  23  24  25 0
 3-21G
 ****
 27  28  30  31  32  35  37  42  43  44  45  46  47 0
 3-21G
 ****
 48  49 0
 3-21G
 ****


