%nproc=1
%NoSave
%Mem=1900MB
#P OB98/GEN NMR

erre ene a

0 1
  C      204.751    -666.432     -61.459
  O      204.152    -665.345     -60.781
  H      204.053    -666.808     -62.208
  H      204.973    -667.233     -60.751
  H      205.669    -666.112     -61.961
  P      205.081    -664.486     -59.799
  C      205.674    -662.771     -61.664
  O      206.151    -663.729     -60.730
  C      206.416    -661.449     -61.483
  O      207.836    -661.678     -61.725
  C      205.959    -660.340     -62.440
  O      206.021    -659.089     -61.744
  C      207.026    -660.360     -63.521
  O      207.142    -659.138     -64.236
  C      208.267    -660.702     -62.695
  N      209.359    -661.223     -63.514
  C      209.900    -660.375     -64.477
  O      209.584    -659.198     -64.629
  N      210.850    -660.935     -65.290
  C      211.284    -662.229     -65.254
  O      212.122    -662.679     -66.026
  C      210.667    -663.077     -64.222
  C      209.749    -662.546     -63.417
  O      205.956    -665.604     -59.062
  O      204.358    -663.600     -58.842
  H      205.507    -665.909     -58.253
  H      206.257    -658.917     -64.588
  H      211.252    -660.336     -65.991
  H      210.979    -664.114     -64.170
  H      209.259    -663.149     -62.660
  H      208.610    -659.819     -62.142
  H      206.806    -661.154     -64.244
  H      204.955    -660.486     -62.849
  H      206.320    -661.131     -60.438
  H      204.606    -662.605     -61.497
  H      205.818    -663.156     -62.679
  P      204.645    -658.285     -61.551
  C      203.912    -659.220     -59.217
  O      203.729    -659.219     -60.624
  O      204.004    -658.418     -63.009
  O      204.850    -656.888     -61.073
  H      204.197    -659.268     -63.435
  H      203.217    -659.898     -58.767
  H      203.746    -658.234     -58.835
  H      204.911    -659.528     -58.987

 6  7  8  9  10  11  12  13  14  15  16  27  31  32  33  34  35 0
 6-311+G(2d,p)
 ****
 36  37 0
 6-311+G(2d,p)
 ****
 1  2  3  4  5  17  18  19  20  21  22  23  24  25 0
 3-21G
 ****
 26  28  29  30  38  39  40  41  42  43  44  45 0
 3-21G
 ****


