%nproc=1
%NoSave
%Mem=1900MB
#P OB98/GEN NMR

erre ene a

0 1
  C     -281.404     555.018    -157.899
  O     -280.995     556.007    -158.826
  H     -280.567     554.792    -157.235
  H     -281.696     554.108    -158.426
  H     -282.241     555.388    -157.300
  P     -282.094     556.499    -159.885
  C     -283.304     558.124    -158.256
  O     -282.525     557.977    -159.438
  C     -283.294     559.584    -157.813
  O     -281.980     559.938    -157.322
  C     -283.586     560.570    -158.936
  O     -284.967     560.656    -159.236
  C     -283.008     561.854    -158.356
  O     -283.940     562.493    -157.473
  C     -281.792     561.348    -157.573
  N     -278.624     564.918    -159.389
  C     -279.744     565.001    -158.636
  N     -280.526     563.999    -158.183
  C     -280.032     562.809    -158.558
  C     -278.902     562.564    -159.318
  C     -278.178     563.690    -159.742
  N     -277.051     563.605    -160.529
  N     -278.740     561.209    -159.530
  C     -279.747     560.641    -158.898
  N     -280.552     561.569    -158.292
  O     -283.369     555.602    -159.524
  O     -281.702     556.356    -161.318
  H     -284.651     562.847    -158.041
  H     -283.434     554.858    -160.153
  H     -280.057     566.009    -158.372
  H     -279.942     559.579    -158.858
  H     -281.692     561.842    -156.598
  H     -282.761     562.560    -159.147
  H     -283.012     560.299    -159.830
  H     -284.010     559.706    -156.991
  H     -282.880     557.503    -157.459
  H     -284.325     557.789    -158.459
  H     -276.621     564.457    -160.852
  H     -276.776     562.703    -160.894
  P     -285.381     560.917    -160.762
  C     -286.379     558.553    -161.229
  O     -286.614     559.946    -161.092
  O     -284.171     560.294    -161.601
  O     -285.616     562.351    -161.104
  H     -284.010     560.830    -162.401
  H     -287.301     558.055    -161.447
  H     -285.973     558.168    -160.317
  H     -285.686     558.385    -162.027

 6  7  8  9  10  11  12  13  14  15  25  28  32  33  34  35 0
 6-311+G(2d,p)
 ****
 36  37  40 0
 6-311+G(2d,p)
 ****
 1  2  3  4  5  16  17  18  19  20  21  22  23  24 0
 3-21G
 ****
 26  27  29  30  31  38  39 41  42  43  44  45  46  47  48 0
 3-21G
 ****


