%nproc=1
%NoSave
%Mem=1900MB
#P OB98/GEN NMR

erre ene a

0 1
  C     -335.850     -38.592     378.617
  O     -334.621     -38.786     379.286
  H     -336.061     -39.477     378.006
  H     -335.790     -37.721     377.957
  H     -336.666     -38.464     379.336
  P     -334.121     -37.675     380.329
  C     -332.298     -36.868     378.702
  O     -332.579     -37.387     379.996
  C     -331.054     -37.528     378.114
  O     -331.311     -38.942     377.943
  C     -330.640     -36.956     376.751
  O     -329.213     -36.913     376.690
  C     -331.164     -37.981     375.766
  O     -330.421     -37.993     374.549
  C     -331.042     -39.277     376.567
  N     -331.413     -43.657     374.070
  C     -330.294     -42.940     374.452
  N     -329.093     -43.444     374.092
  N     -330.349     -41.815     375.121
  C     -331.614     -41.433     375.424
  C     -332.795     -42.053     375.105
  C     -332.723     -43.288     374.353
  O     -333.678     -43.960     373.976
  N     -333.877     -41.343     375.572
  C     -333.342     -40.286     376.164
  N     -331.971     -40.292     376.094
  O     -334.399     -37.978     381.766
  O     -334.855     -36.338     379.854
  H     -330.773     -38.731     374.001
  H     -335.638     -36.156     380.408
  H     -331.318     -44.510     373.547
  H     -333.896     -39.497     376.652
  H     -330.035     -39.713     376.505
  H     -332.213     -37.764     375.527
  H     -328.975     -44.309     373.592
  H     -331.050     -35.955     376.569
  H     -328.259     -42.948     374.380
  H     -330.235     -37.437     378.841
  H     -332.139     -35.789     378.795
  H     -333.163     -37.043     378.049
  P     -328.510     -35.917     375.651
  C     -326.483     -37.478     375.322
  O     -326.926     -36.178     375.698
  O     -328.923     -34.488     375.743
  O     -328.918     -36.547     374.230
  H     -328.972     -35.830     373.570
  H     -325.417     -37.526     375.394
  H     -326.782     -37.679     374.314
  H     -326.918     -38.206     375.975

 6  7  8  9  10  11  12  13  14  15  26  29  33  34 0
 6-311+G(2d,p)
 ****
 36  38  39  40  41 0
 6-311+G(2d,p)
 ****
 1  2  3  4  5  16  17  18  19  20  21  22  23  24  25 0
 3-21G
 ****
 27  28  30  31  32  35  37  42  43  44  45  46  47 0
 3-21G
 ****
 48  49 0
 3-21G
 ****


