%nproc=1
%NoSave
%Mem=1900MB
#P OB98/GEN NMR

erre ene a

0 1
  C      486.430     517.965    -473.900
  O      487.795     518.350    -474.075
  P      488.729     518.479    -472.774
  C      488.970     521.102    -472.511
  O      489.549     519.848    -472.824
  C      489.594     522.187    -473.407
  O      491.009     522.304    -473.113
  C      489.474     521.900    -474.896
  O      488.249     522.367    -475.428
  C      490.684     522.617    -475.463
  O      490.440     524.031    -475.543
  C      491.751     522.305    -474.356
  N      492.505     521.042    -474.460
  C      493.655     520.973    -475.243
  O      494.111     521.920    -475.890
  N      494.303     519.760    -475.271
  C      494.018     518.679    -474.468
  O      494.681     517.640    -474.492
  C      492.896     518.849    -473.556
  C      492.176     519.995    -473.611
  O      489.848     517.360    -473.010
  O      488.010     518.286    -471.475
  H      491.278     524.454    -475.807
  H      489.786     516.668    -472.327
  H      495.104     519.682    -475.876
  H      492.660     518.028    -472.892
  H      491.347     520.113    -472.937
  H      492.487     523.103    -474.330
  H      490.910     522.279    -476.476
  H      489.590     520.825    -475.080
  H      489.111     523.145    -473.166
  H      489.109     521.349    -471.459
  H      487.880     521.051    -472.681
  P      486.943     521.427    -475.364
  C      487.845     520.456    -477.569
  O      486.703     520.920    -476.875
  O      485.754     522.016    -474.682
  O      487.459     520.109    -474.636
  H      487.264     520.127    -473.671
  H      487.539     520.003    -478.502
  H      488.382     519.722    -476.968
  H      488.510     521.302    -477.801
  H      485.946     517.925    -474.853
  H      485.934     518.681    -473.278
  H      486.388     517.001    -473.437

 3  4  5  6  7  8  9  10  11  12  13  23  28  29  30  31  32 0
 6-311+G(2d,p)
 ****
 33  34 0
 6-311+G(2d,p)
 ****
 1  2  14  15  16  17  18  19  20  21  22  24  25  26  27 0
 3-21G
 ****
 35  36  37  38  39  40  41  42  43  44  45 0
 3-21G
 ****


