%nproc=1
%NoSave
%Mem=1900MB
#P OB98/GEN NMR

erre ene a

0 1
  C      316.621      95.114    -895.340
  O      316.289      94.259    -896.420
  H      317.425      94.676    -894.750
  H      316.951      96.074    -895.740
  H      315.742      95.277    -894.710
  P      315.810      92.779    -896.050
  C      313.519      93.191    -897.200
  O      314.205      92.801    -896.010
  C      312.629      92.051    -897.690
  O      313.475      91.007    -898.220
  C      311.721      91.431    -896.610
  O      310.355      91.519    -897.010
  C      312.120      89.960    -896.590
  O      311.003      89.078    -896.450
  C      312.833      89.753    -897.930
  N      313.546      84.792    -898.840
  C      312.660      85.682    -899.350
  N      312.590      87.016    -899.150
  C      313.590      87.422    -898.340
  C      314.573      86.642    -897.760
  C      314.526      85.263    -898.040
  N      315.409      84.353    -897.480
  N      315.424      87.419    -896.990
  C      314.925      88.632    -897.060
  N      313.792      88.685    -897.850
  O      316.221      92.633    -894.500
  O      316.400      91.695    -896.880
  H      311.365      88.175    -896.370
  H      316.683      91.783    -894.360
  H      311.885      85.269    -900.000
  H      315.297      89.507    -896.530
  H      312.129      89.539    -898.740
  H      312.799      89.788    -895.740
  H      311.862      91.897    -895.630
  H      312.014      92.430    -898.520
  H      314.245      93.433    -897.980
  H      315.222      83.378    -897.640
  H      316.059      84.678    -896.800
  H      312.928      94.085    -896.980
  P      309.330      92.151    -895.930
  C      308.713      94.071    -897.580
  O      309.173      93.721    -896.280
  O      310.192      92.174    -894.580
  O      308.065      91.376    -895.770
  H      309.613      92.133    -893.810
  H      308.660      95.136    -897.665
  H      307.742      93.651    -897.740
  H      309.392      93.688    -898.313

 6  7  8  9  10  11  12  13  14  15  25  28  32  33  34  35 0
 6-311+G(2d,p)
 ****
 36  39  40 0
 6-311+G(2d,p)
 ****
 1  2  3  4  5  16  17  18  19  20  21  22  23  24 0
 3-21G
 ****
 26  27  29  30  31  37  38  41  42  43  44  45  46  47  48 0
 3-21G
 ****


