%nproc=1
%NoSave
%Mem=1900MB
#P OB98/GEN NMR

erre ene a

0 1
  C      623.694    -542.301    -690.916
  O      622.813    -541.436    -690.230
  H      624.525    -541.739    -691.345
  H      624.081    -543.043    -690.212
  H      623.153    -542.820    -691.717
  P      622.214    -540.205    -691.075
  C      619.949    -541.063    -690.143
  O      620.737    -539.932    -690.507
  C      618.469    -540.677    -690.105
  O      618.116    -539.951    -691.316
  C      617.507    -541.858    -690.054
  O      617.394    -542.396    -688.739
  C      616.209    -541.178    -690.494
  O      615.629    -540.478    -689.375
  C      616.700    -540.179    -691.543
  N      614.572    -539.138    -696.101
  C      614.564    -538.466    -694.932
  N      615.147    -538.804    -693.751
  C      615.800    -539.977    -693.872
  C      615.885    -540.770    -695.005
  C      615.234    -540.312    -696.157
  N      615.235    -541.016    -697.354
  N      616.661    -541.893    -694.746
  C      617.028    -541.777    -693.482
  N      616.514    -540.617    -692.904
  O      621.940    -540.847    -692.522
  O      623.096    -539.011    -691.172
  H      614.739    -540.199    -689.662
  H      622.122    -540.175    -693.209
  H      614.028    -537.514    -694.931
  H      617.646    -542.486    -692.951
  H      616.200    -539.205    -691.426
  H      615.466    -541.896    -690.864
  H      617.786    -542.630    -690.776
  H      618.313    -540.008    -689.248
  H      620.251    -541.402    -689.143
  H      614.925    -540.560    -698.185
  H      615.740    -541.907    -697.375
  H      620.123    -541.857    -690.865
  P      616.902    -543.906    -688.597
  C      618.032    -543.865    -686.264
  O      616.879    -544.231    -687.023
  O      618.163    -544.771    -689.138
  O      615.651    -544.248    -689.352
  H      617.851    -545.631    -689.473
  H      617.885    -544.136    -685.239
  H      618.185    -542.808    -686.335
  H      618.889    -544.377    -686.649

 6  7  8  9  10  11  12  13  14  15  25  28  32  33  34  35 0
 6-311+G(2d,p)
 ****
 36  39  40 0
 6-311+G(2d,p)
 ****
 1  2  3  4  5  16  17  18  19  20  21  22  23  24 0
 3-21G
 ****
 26  27  29  30  31  37  38  41  42  43  44  45  46  47  48 0
 3-21G
 ****


