%nproc=1
%NoSave
%Mem=1900MB
#P OB98/GEN NMR

erre ene a

0 1
  C     -432.907    -200.908     -91.820
  O     -431.865    -201.562     -91.106
  P     -431.625    -203.125     -91.414
  C     -431.891    -204.527     -89.250
  O     -432.536    -203.919     -90.365
  C     -431.369    -203.466     -88.287
  O     -432.406    -202.501     -88.016
  C     -430.951    -203.998     -86.924
  O     -429.640    -204.563     -86.957
  C     -430.978    -202.728     -86.091
  O     -429.754    -201.992     -86.286
  C     -432.168    -201.966     -86.695
  N     -436.953    -200.355     -86.174
  C     -435.994    -200.015     -87.116
  N     -436.377    -199.133     -88.067
  N     -434.776    -200.486     -87.117
  C     -434.545    -201.387     -86.129
  C     -435.408    -201.805     -85.135
  C     -436.736    -201.236     -85.111
  O     -437.600    -201.452     -84.270
  N     -434.816    -202.738     -84.324
  C     -433.615    -202.906     -84.840
  N     -433.391    -202.087     -85.921
  O     -430.138    -203.371     -90.879
  O     -431.777    -203.514     -92.849
  H     -429.580    -201.979     -87.240
  H     -429.736    -204.130     -91.355
  H     -437.873    -199.975     -86.227
  H     -432.878    -203.616     -84.472
  H     -431.940    -200.901     -86.813
  H     -431.058    -202.928     -85.012
  H     -437.339    -198.841     -88.191
  H     -431.684    -204.712     -86.535
  H     -435.706    -198.899     -88.782
  H     -430.534    -202.936     -88.772
  H     -431.047    -205.126     -89.608
  H     -432.595    -205.190     -88.745
  P     -429.257    -205.553     -85.752
  C     -427.552    -204.370     -84.195
  O     -428.910    -204.598     -84.514
  O     -427.839    -206.143     -86.205
  O     -430.261    -206.630     -85.501
  H     -427.689    -207.017     -85.798
  H     -426.928    -204.314     -85.089
  H     -427.189    -205.171     -83.544
  H     -427.475    -203.423     -83.659
  H     -432.955    -199.882     -91.520
  H     -433.840    -201.386     -91.607
  H     -432.709    -200.964     -92.870

 3  4  5  6  7  8  9  10  11  12  23  26  30  31  33  0
 6-311+G(2d,p)
 ****
 35  36  37  38 0
 6-311+G(2d,p)
 ****
 1  2  13  14  15  16  17  18  19  20  21  22  24  25  27  28  29 0
 3-21G
 ****
 32  34  39  40  41  42  43  44  45  46  47  48  49 0
 3-21G
 ****


