%nproc=1
%NoSave
%Mem=1900MB
#P OB98/GEN NMR

erre ene a

0 1
  C       21.373     290.319    1001.977
  O       22.155     289.832    1003.052
  H       21.787     289.985    1001.028
  H       20.356     289.921    1002.070
  H       21.328     291.412    1002.001
  P       23.698     290.265    1003.079
  C       23.674     291.532    1005.345
  O       24.119     290.390    1004.629
  C       23.909     291.337    1006.838
  O       22.784     290.609    1007.399
  C       25.202     290.563    1007.195
  O       26.039     291.352    1008.038
  C       24.709     289.351    1007.984
  O       25.545     289.037    1009.096
  C       23.308     289.767    1008.431
  N       20.989     286.942    1011.983
  C       21.432     288.214    1012.018
  N       21.950     288.948    1011.000
  C       21.955     288.234    1009.854
  C       21.506     286.936    1009.663
  C       21.018     286.265    1010.800
  N       20.604     284.949    1010.798
  N       21.678     286.549    1008.341
  C       22.249     287.577    1007.765
  N       22.462     288.609    1008.634
  O       23.660     291.791    1002.572
  O       24.606     289.429    1002.236
  H       25.084     288.336    1009.605
  H       24.338     291.924    1001.886
  H       21.385     288.716    1012.973
  H       22.583     287.601    1006.733
  H       23.330     290.348    1009.368
  H       24.673     288.476    1007.320
  H       25.756     290.248    1006.297
  H       23.926     292.324    1007.325
  H       22.597     291.680    1005.172
  H       20.390     284.522    1011.672
  H       20.741     284.416    1009.933
  H       24.206     292.414    1004.981
  P       27.584     290.878    1008.163
  C       28.755     292.739    1006.752
  O       28.489     292.215    1008.045
  O       27.844     290.136    1006.774
  O       27.857     289.997    1009.330
  H       28.544     289.468    1006.873
  H       29.361     293.617    1006.840
  H       27.832     292.990    1006.272
  H       29.272     292.006    1006.169

 6  7  8  9  10  11  12  13  14  15  25  28  32  33  34  35 0
 6-311+G(2d,p)
 ****
 36  39  40 0
 6-311+G(2d,p)
 ****
 1  2  3  4  5  16  17  18  19  20  21  22  23  24 0
 3-21G
 ****
 26  27  29  30  31  37  38  41  42  43  44  45  46  47  48 0
 3-21G
 ****


