%nproc=1
%NoSave
%Mem=1900MB
#P OB98/GEN NMR

erre ene a

0 1
  C      213.158      90.795     588.029
  O      214.065      89.791     587.636
  H      212.940      90.668     589.095
  H      212.220      90.700     587.477
  H      213.586      91.789     587.875
  P      214.533      89.710     586.101
  C      216.539      91.248     586.549
  O      215.324      91.086     585.824
  C      217.751      90.890     585.687
  O      217.884      91.862     584.609
  C      219.076      90.863     586.460
  O      219.805      89.679     586.131
  C      219.821      92.082     585.932
  O      221.233      91.972     586.070
  C      219.292      92.143     584.492
  N      219.553      93.430     583.867
  C      220.272      93.399     582.666
  O      220.637      92.323     582.184
  N      220.602      94.585     582.061
  C      220.289      95.705     582.634
  N      220.673      96.844     581.994
  C      219.558      95.783     583.915
  C      219.226      94.622     584.471
  O      213.436      89.408     585.133
  O      215.703      88.619     586.085
  H      221.490      92.299     586.962
  H      215.793      88.261     585.170
  H      219.331      96.748     584.352
  H      218.690      94.577     585.413
  H      219.748      91.354     583.878
  H      219.497      92.970     586.486
  H      218.945      90.911     587.540
  H      217.556      89.922     585.202
  H      221.180      96.746     581.126
  H      216.501      90.613     587.443
  H      220.506      97.775     582.358
  H      216.618      92.296     586.856
  P      220.817      89.133     587.257
  C      219.281      87.287     588.246
  O      219.942      88.524     588.457
  O      221.444      90.478     587.873
  O      221.878      88.233     586.715
  H      222.378      90.554     587.611
  H      218.743      87.015     589.130
  H      220.003      86.530     588.021
  H      218.598      87.383     587.428

 6  7  8  9  10  11  12  13  14  15  16  26  30  31  32  33  35 0
 6-311+G(2d,p)
 ****
 37  38 0
 6-311+G(2d,p)
 ****
 1  2  3  4  5  17  18  19  20  21  22  23  24  25 0
 3-21G
 ****
 27  28  29  34  36  39  40  41  42  43  44  45  46 0
 3-21G
 ****


