%nproc=1
%NoSave
%Mem=1900MB
#P OB98/GEN NMR

erre ene a

0 1
  C     -253.729      81.272      71.858
  O     -254.773      82.043      71.299
  H     -252.774      81.683      71.519
  H     -253.803      80.239      71.513
  H     -253.759      81.309      72.950
  P     -256.283      81.745      71.745
  C     -257.050      84.194      71.467
  O     -257.214      82.848      71.041
  C     -257.378      85.165      70.330
  O     -256.288      85.144      69.372
  C     -258.669      84.824      69.579
  O     -259.335      86.033      69.219
  C     -258.173      84.118      68.332
  O     -259.092      84.229      67.247
  C     -256.841      84.821      68.080
  N     -255.641      83.171      63.457
  C     -256.585      84.098      63.856
  N     -257.336      84.655      62.882
  N     -256.780      84.444      65.102
  C     -255.942      83.822      65.967
  C     -254.969      82.890      65.699
  C     -254.779      82.499      64.318
  O     -253.969      81.674      63.907
  N     -254.343      82.479      66.848
  C     -254.938      83.160      67.809
  N     -255.924      83.981      67.327
  O     -256.488      81.606      73.220
  O     -256.665      80.400      70.972
  H     -259.249      85.187      67.102
  H     -256.671      79.638      71.578
  H     -255.541      82.933      62.487
  H     -254.699      83.094      68.862
  H     -256.960      85.752      67.511
  H     -258.021      83.052      68.544
  H     -257.223      84.453      61.900
  H     -259.336      84.199      70.171
  H     -258.014      85.361      63.143
  H     -257.420      86.181      70.742
  H     -256.010      84.330      71.779
  H     -257.705      84.383      72.325
  P     -260.936      86.099      69.315
  C     -260.937      88.329      70.592
  O     -261.383      87.637      69.435
  O     -261.555      85.183      70.317
  O     -261.396      85.716      67.826
  H     -262.231      85.210      67.876
  H     -261.293      89.338      70.564
  H     -259.867      88.329      70.617
  H     -261.315      87.842      71.467

 6  7  8  9  10  11  12  13  14  15  26  29  33  34 0
 6-311+G(2d,p)
 ****
 36  38  39  40  41 0
 6-311+G(2d,p)
 ****
 1  2  3  4  5  16  17  18  19  20  21  22  23  24  25 0
 3-21G
 ****
 27  28  30  31  32  35  37  42  43  44  45  46  47 0
 3-21G
 ****
 48  49 0
 3-21G
 ****


