%nproc=1
%NoSave
%Mem=1900MB
#P OB98/GEN NMR

erre ene a

0 1
  C      245.794    -774.146     446.677
  O      246.172    -775.432     447.183
  P      245.482    -776.731     446.532
  C      244.547    -777.494     448.844
  O      244.270    -777.174     447.479
  C      243.316    -778.125     449.505
  O      242.243    -777.170     449.644
  C      242.731    -779.296     448.725
  O      243.431    -780.503     448.996
  C      241.332    -779.369     449.307
  O      241.361    -780.042     450.572
  C      240.988    -777.876     449.499
  N      236.907    -778.447     446.566
  C      237.363    -779.213     447.623
  N      236.610    -780.298     447.953
  N      238.447    -778.953     448.297
  C      239.083    -777.840     447.872
  C      238.742    -777.007     446.836
  C      237.542    -777.305     446.093
  O      237.095    -776.676     445.132
  N      239.642    -775.975     446.699
  C      240.530    -776.179     447.663
  N      240.237    -777.317     448.386
  O      246.581    -777.869     446.793
  O      245.164    -776.589     445.083
  H      241.803    -780.904     450.438
  H      246.504    -778.560     446.111
  H      236.065    -778.690     446.076
  H      241.379    -775.549     447.868
  H      240.407    -777.710     450.410
  H      240.645    -779.921     448.664
  H      235.729    -780.522     447.514
  H      242.693    -779.074     447.645
  H      236.905    -780.846     448.749
  H      243.616    -778.471     450.513
  H      244.856    -776.594     449.390
  H      245.414    -778.165     448.874
  P      244.562    -780.970     447.947
  C      243.023    -782.979     447.299
  O      243.799    -781.873     446.861
  O      245.416    -782.027     448.792
  O      245.411    -779.875     447.403
  H      246.343    -782.021     448.493
  H      242.464    -783.375     446.455
  H      242.329    -782.681     448.089
  H      243.691    -783.775     447.678
  H      246.331    -773.384     447.202
  H      244.743    -774.003     446.817
  H      246.026    -774.091     445.634

 3  4  5  6  7  8  9  10  11  12  23  26  30  31 0
 6-311+G(2d,p)
 ****
 33  35  36  37  38 0
 6-311+G(2d,p)
 ****
 1  2  13  14  15  16  17  18  19  20  21  22  24  25 0
 3-21G
 ****
 27  28  29  32  34  39  40  41  42  43  44  45  46  47  48  49 0
 3-21G
 ****


