%nproc=1
%NoSave
%Mem=1900MB
#P OB98/GEN NMR

erre ene a

0 1
  C      496.261     469.270     -63.569
  O      495.016     469.850     -63.923
  P      493.639     469.036     -63.746
  C      493.027     466.637     -64.486
  O      493.736     467.827     -64.796
  C      493.719     465.429     -65.121
  O      494.883     465.073     -64.335
  C      492.867     464.175     -65.193
  O      491.924     464.264     -66.250
  C      493.942     463.105     -65.365
  O      494.391     463.054     -66.728
  C      495.069     463.648     -64.462
  N      495.115     462.992     -63.152
  C      495.551     461.664     -63.134
  O      495.881     461.088     -64.162
  N      495.627     461.020     -61.915
  C      495.280     461.641     -60.828
  N      495.440     460.971     -59.647
  C      494.759     463.022     -60.814
  C      494.718     463.637     -62.002
  O      492.403     469.858     -63.866
  O      493.785     468.290     -62.343
  H      493.786     462.458     -67.208
  H      493.477     468.829     -61.569
  H      494.475     463.487     -59.877
  H      494.363     464.657     -62.073
  H      496.042     463.509     -64.953
  H      493.604     462.097     -65.084
  H      492.332     464.015     -64.241
  H      494.070     465.725     -66.115
  H      495.963     460.094     -59.687
  H      492.011     466.711     -64.891
  H      495.476     461.462     -58.762
  H      492.962     466.526     -63.395
  P      490.538     463.475     -66.076
  C      489.834     460.980     -66.190
  O      490.866     461.928     -66.369
  O      489.678     463.950     -67.344
  O      489.838     463.746     -64.782
  H      489.029     464.635     -67.078
  H      490.143     460.033     -66.657
  H      488.911     461.322     -66.675
  H      489.654     460.805     -65.133
  H      497.048     469.969     -63.762
  H      496.420     468.385     -64.149
  H      496.254     469.018     -62.529

 3  4  5  6  7  8  9  10  11  12  13  23  27  28  29  30  32 0
 6-311+G(2d,p)
 ****
 34  35 0
 6-311+G(2d,p)
 ****
 1  2  14  15  16  17  18  19  20  21  22  24  25  26 0
 3-21G
 ****
 31  33  36  37  38  39  40  41  42  43  44  45  46 0
 3-21G
 ****


