%nproc=1
%NoSave
%Mem=1900MB
#P OB98/GEN NMR

erre ene a

0 1
  C       77.505      19.264      33.063
  O       78.059      19.642      31.795
  P       77.184      20.263      30.600
  C       75.236      19.462      29.089
  O       76.289      19.085      29.970
  C       73.897      18.887      29.559
  O       73.824      17.473      29.250
  C       73.654      18.949      31.062
  O       73.357      20.263      31.504
  C       72.503      17.956      31.220
  O       71.235      18.577      30.956
  C       72.815      16.912      30.130
  N       73.250      15.635      30.674
  C       72.291      14.896      31.380
  O       71.172      15.366      31.588
  N       72.641      13.652      31.845
  C       73.858      13.227      31.714
  N       74.137      11.977      32.179
  C       74.931      14.033      31.098
  C       74.559      15.214      30.604
  O       77.989      21.015      29.586
  O       76.112      21.220      31.310
  H       75.840      21.922      30.691
  H       71.274      18.924      30.045
  H       75.944      13.659      31.047
  H       75.282      15.865      30.120
  H       71.935      16.754      29.494
  H       72.453      17.542      32.234
  H       74.539      18.567      31.588
  H       73.092      19.404      29.019
  H       73.376      11.447      32.587
  H       75.460      19.068      28.091
  H       75.046      11.548      32.105
  H       75.192      20.556      29.027
  P       73.786      20.638      33.006
  C       73.032      19.963      35.399
  O       72.880      19.768      34.004
  O       73.233      22.135      33.192
  O       75.255      20.566      33.266
  H       73.878      22.658      33.707
  H       72.088      19.712      35.893
  H       73.294      20.999      35.639
  H       73.815      19.296      35.771
  H       78.281      18.878      33.690
  H       76.758      18.512      32.916
  H       77.063      20.120      33.528

 3  4  5  6  7  8  9  10  11  12  13  24  27  28  29  30  32 0
 6-311+G(2d,p)
 ****
 34  35 0
 6-311+G(2d,p)
 ****
 1  2  14  15  16  17  18  19  20  21  22  23  25  26 0
 3-21G
 ****
 31  33  36  37  38  39  40  41  42  43  44  45  46 0
 3-21G
 ****


