%nproc=1
%NoSave
%Mem=1900MB
#P OB98/GEN NMR

erre ene a

0 1
  C     -168.306     -48.710    -305.213
  O     -169.420     -47.905    -305.540
  H     -167.521     -48.538    -305.957
  H     -168.576     -49.770    -305.232
  H     -167.916     -48.442    -304.228
  P     -170.741     -48.034    -304.644
  C     -171.194     -45.678    -303.672
  O     -170.598     -46.958    -303.465
  C     -171.960     -45.237    -302.428
  O     -172.626     -43.980    -302.670
  C     -173.052     -46.208    -301.995
  O     -172.490     -47.341    -301.361
  C     -173.882     -45.306    -301.092
  O     -173.266     -45.154    -299.804
  C     -173.836     -43.972    -301.877
  N     -175.009     -43.756    -302.726
  C     -176.001     -42.918    -302.206
  O     -175.865     -42.417    -301.088
  N     -177.123     -42.683    -302.962
  C     -177.229     -43.199    -304.144
  N     -178.361     -42.924    -304.844
  C     -176.192     -44.061    -304.747
  C     -175.124     -44.305    -303.986
  O     -171.094     -49.414    -304.180
  O     -171.896     -47.412    -305.566
  H     -173.935     -44.730    -299.230
  H     -172.348     -48.113    -306.071
  H     -176.316     -44.459    -305.742
  H     -174.314     -44.926    -304.352
  H     -173.755     -43.123    -301.186
  H     -174.884     -45.698    -300.922
  H     -173.668     -46.500    -302.849
  H     -171.231     -45.074    -301.621
  H     -179.038     -42.311    -304.400
  H     -171.879     -45.776    -304.522
  H     -178.481     -43.133    -305.824
  H     -170.431     -44.934    -303.929
  P     -173.368     -48.636    -301.014
  C     -172.902     -49.889    -303.213
  O     -173.872     -49.209    -302.429
  O     -174.446     -48.420    -300.003
  O     -172.284     -49.723    -300.567
  H     -171.975     -49.543    -299.646
  H     -173.351     -50.222    -304.125
  H     -172.531     -50.732    -302.669
  H     -172.093     -49.224    -303.435

 6  7  8  9  10  11  12  13  14  15  16  26  30  31  32  33  35 0
 6-311+G(2d,p)
 ****
 37  38 0
 6-311+G(2d,p)
 ****
 1  2  3  4  5  17  18  19  20  21  22  23  24  25 0
 3-21G
 ****
 27  28  29  34  36  39  40  41  42  43  44  45  46 0
 3-21G
 ****


