%nproc=1
%NoSave
%Mem=1900MB
#P OB98/GEN NMR

erre ene a

0 1
  C     -459.364    -218.089     395.938
  O     -458.735    -217.871     394.692
  H     -460.428    -218.271     395.770
  H     -459.257    -217.213     396.585
  H     -458.935    -218.968     396.428
  P     -457.199    -217.421     394.667
  C     -457.485    -216.501     392.280
  O     -456.759    -217.383     393.123
  C     -457.116    -216.727     390.810
  O     -455.695    -216.466     390.642
  C     -457.397    -218.156     390.321
  O     -457.855    -218.085     388.969
  C     -456.030    -218.804     390.389
  O     -455.933    -219.912     389.514
  C     -455.093    -217.636     390.060
  N     -453.746    -217.873     390.569
  C     -452.990    -218.852     389.912
  O     -453.468    -219.458     388.948
  N     -451.754    -219.180     390.403
  C     -451.321    -218.616     391.489
  N     -450.099    -219.008     391.938
  C     -452.090    -217.594     392.227
  C     -453.276    -217.275     391.718
  O     -456.276    -218.183     395.563
  O     -457.254    -215.870     395.068
  H     -455.983    -219.594     388.581
  H     -457.170    -215.770     396.036
  H     -451.687    -217.159     393.130
  H     -453.920    -216.543     392.200
  H     -455.035    -217.477     388.974
  H     -455.839    -219.164     391.407
  H     -458.133    -218.683     390.938
  H     -457.647    -215.992     390.197
  H     -449.618    -219.734     391.410
  H     -457.232    -215.473     392.566
  H     -449.678    -218.673     392.792
  H     -458.560    -216.651     392.421
  P     -459.382    -217.710     388.644
  C     -459.730    -219.081     386.511
  O     -459.606    -217.768     387.050
  O     -459.867    -216.454     389.293
  O     -460.212    -218.976     389.176
  H     -461.096    -218.682     389.466
  H     -459.875    -219.020     385.453
  H     -460.569    -219.572     386.958
  H     -458.839    -219.637     386.717

 6  7  8  9  10  11  12  13  14  15  16  26  30  31  32  33  35 0
 6-311+G(2d,p)
 ****
 37  38 0
 6-311+G(2d,p)
 ****
 1  2  3  4  5  17  18  19  20  21  22  23  24  25 0
 3-21G
 ****
 27  28  29  34  36  39  40  41  42  43  44  45  46 0
 3-21G
 ****


