%nproc=1
%NoSave
%Mem=1900MB
#P OB98/GEN NMR

erre ene a

0 1
  C     -162.258     384.291     467.192
  O     -162.237     385.454     466.348
  P     -163.453     385.709     465.337
  C     -163.421     384.000     463.365
  O     -163.920     384.335     464.654
  C     -163.767     382.546     463.001
  O     -165.211     382.336     463.074
  C     -163.330     382.124     461.588
  O     -162.995     380.731     461.641
  C     -164.597     382.326     460.775
  O     -164.600     381.605     459.553
  C     -165.647     381.848     461.789
  N     -167.013     382.286     461.497
  C     -167.938     381.322     461.125
  O     -167.680     380.128     460.965
  N     -169.219     381.780     460.906
  C     -169.631     383.078     460.974
  O     -170.781     383.429     460.735
  C     -168.596     384.052     461.344
  C     -167.358     383.622     461.580
  O     -162.727     386.461     464.119
  O     -164.564     386.555     465.874
  H     -165.450     381.777     459.113
  H     -163.256     387.237     463.846
  H     -169.908     381.088     460.649
  H     -168.887     385.099     461.413
  H     -166.585     384.323     461.874
  H     -165.624     380.749     461.848
  H     -164.717     383.387     460.541
  H     -162.480     382.705     461.209
  H     -163.313     381.889     463.752
  H     -162.335     384.116     463.361
  H     -163.845     384.683     462.629
  P     -161.443     380.318     461.731
  C     -160.771     381.147     459.338
  O     -160.642     381.289     460.740
  O     -161.472     378.921     460.944
  O     -160.912     380.201     463.123
  H     -161.989     378.967     460.120
  H     -161.810     380.949     459.058
  H     -160.136     380.324     458.999
  H     -160.449     382.073     458.861
  H     -161.377     384.275     467.800
  H     -162.288     383.410     466.585
  H     -163.124     384.322     467.820

 3  4  5  6  7  8  9  10  11  12  13  23  28  29  30  31  32 0
 6-311+G(2d,p)
 ****
 33  34 0
 6-311+G(2d,p)
 ****
 1  2  14  15  16  17  18  19  20  21  22  24  25  26 0
 3-21G
 ****
 27  35  36  37  38  39  40  41  42  43  44  45 0
 3-21G
 ****


