%nproc=1
%NoSave
%Mem=1900MB
#P OB98/GEN NMR

erre ene a

0 1
  C      112.581     280.052     379.425
  O      112.355     278.661     379.492
  H      113.503     280.231     378.866
  H      112.702     280.456     380.434
  H      111.760     280.564     378.917
  P      110.931     278.131     380.000
  C      111.047     278.071     382.575
  O      110.672     278.819     381.427
  C      110.350     278.609     383.828
  O      110.677     280.021     383.976
  C      108.817     278.497     383.787
  O      108.366     278.323     385.137
  C      108.421     279.865     383.269
  O      107.060     280.138     383.520
  C      109.434     280.751     383.996
  N      109.562     282.073     383.388
  C      108.579     283.002     383.708
  O      107.620     282.746     384.437
  N      108.703     284.233     383.126
  C      109.661     284.595     382.224
  O      109.705     285.705     381.709
  C      110.648     283.556     381.888
  C      110.557     282.364     382.478
  O      110.745     276.651     379.979
  O      109.873     278.877     379.058
  H      106.917     280.295     384.477
  H      109.079     278.322     378.939
  H      108.004     284.922     383.357
  H      111.415     283.809     381.168
  H      111.271     281.579     382.249
  H      109.144     280.890     385.047
  H      108.571     279.924     382.185
  H      108.463     277.679     383.156
  H      110.760     278.096     384.707
  H      112.133     278.150     382.689
  H      110.784     277.017     382.428
  P      107.717     276.951     385.649
  C      105.590     277.143     384.207
  O      106.753     276.375     384.499
  O      107.072     277.039     386.993
  O      108.931     275.907     385.670
  H      108.765     275.223     386.343
  H      105.031     276.663     383.431
  H      105.880     278.121     383.885
  H      104.985     277.222     385.086

 6  7  8  9  10  11  12  13  14  15  16  26  31  32  33  34  35 0
 6-311+G(2d,p)
 ****
 36  37 0
 6-311+G(2d,p)
 ****
 1  2  3  4  5  17  18  19  20  21  22  23  24  25 0
 3-21G
 ****
 27  28  29  30  38  39  40  41  42  43  44  45 0
 3-21G
 ****


