%nproc=1
%NoSave
%Mem=1900MB
#P OB98/GEN NMR

erre ene a

0 1
  C     -801.496     396.422     103.947
  O     -801.383     395.516     102.863
  H     -802.242     397.180     103.691
  H     -800.538     396.916     104.125
  H     -801.821     395.901     104.854
  P     -800.467     394.214     103.039
  C     -798.604     395.345     101.650
  O     -798.946     394.685     102.861
  C     -797.344     394.729     101.050
  O     -796.206     394.987     101.898
  C     -797.406     393.206     100.913
  O     -798.212     392.827      99.809
  C     -795.936     392.861     100.786
  O     -795.478     393.076      99.435
  C     -795.291     393.881     101.756
  N     -794.966     393.283     103.060
  C     -793.742     392.623     103.146
  O     -792.981     392.492     102.201
  N     -793.453     392.081     104.367
  C     -794.288     392.036     105.459
  O     -794.011     391.466     106.499
  C     -795.570     392.739     105.299
  C     -795.845     393.329     104.123
  O     -800.856     393.031     102.212
  O     -800.559     393.888     104.604
  H     -796.149     392.672      98.852
  H     -801.145     393.123     104.744
  H     -792.583     391.582     104.453
  H     -796.253     392.744     106.134
  H     -796.791     393.837     103.982
  H     -794.371     394.285     101.324
  H     -795.735     391.818     101.032
  H     -797.797     392.766     101.845
  H     -797.157     395.194     100.078
  H     -798.419     396.410     101.863
  H     -799.447     395.268     100.953
  P     -798.999     391.436      99.837
  C     -797.654     389.978      98.190
  O     -797.932     390.275      99.557
  O     -800.231     391.373      98.987
  O     -799.361     391.226     101.382
  H     -800.332     391.182     101.478
  H     -796.931     389.191      98.136
  H     -797.268     390.851      97.707
  H     -798.555     389.669      97.702

 6  7  8  9  10  11  12  13  14  15  16  26  31  32  33  34  35 0
 6-311+G(2d,p)
 ****
 36  37 0
 6-311+G(2d,p)
 ****
 1  2  3  4  5  17  18  19  20  21  22  23  24  25 0
 3-21G
 ****
 27  28  29  30  38  39  40  41  42  43  44  45 0
 3-21G
 ****


