%nproc=1
%NoSave
%Mem=1900MB
#P OB98/GEN NMR

erre ene a

0 1
  C       -3.929     183.631      28.942
  O       -5.259     183.337      28.575
  H       -3.318     183.667      28.037
  H       -3.543     182.845      29.596
  H       -3.862     184.597      29.449
  P       -6.422     183.540      29.657
  C       -7.715     184.908      27.888
  O       -7.243     184.849      29.227
  C       -9.171     185.385      27.845
  O       -9.994     184.455      28.594
  C       -9.334     186.757      28.509
  O      -10.429     187.490      27.965
  C       -9.649     186.397      29.951
  O      -10.333     187.434      30.653
  C      -10.474     185.125      29.772
  N      -11.466     184.443      34.727
  C      -11.520     185.602      33.978
  N      -11.888     186.728      34.635
  N      -11.216     185.657      32.707
  C      -10.795     184.474      32.198
  C      -10.679     183.266      32.844
  C      -11.049     183.206      34.245
  O      -10.999     182.214      34.962
  N      -10.207     182.289      32.003
  C      -10.035     182.905      30.850
  N      -10.402     184.229      30.911
  O       -5.639     184.037      30.965
  O       -7.258     182.329      29.944
  H       -9.825     188.258      30.525
  H       -6.169     183.863      31.763
  H      -11.740     184.450      35.695
  H       -9.667     182.440      29.943
  H      -11.531     185.367      29.612
  H       -8.705     186.222      30.477
  H      -11.936     186.760      35.642
  H       -8.433     187.364      28.446
  H      -11.633     187.615      34.194
  H       -9.539     185.374      26.812
  H       -7.626     183.901      27.473
  H       -7.077     185.561      27.291
  P      -10.173     188.989      27.461
  C      -10.758     188.608      24.908
  O       -9.830     188.988      25.902
  O       -8.791     189.391      28.156
  O      -11.270     189.951      27.797
  H       -8.925     190.123      28.789
  H      -10.301     188.688      23.944
  H      -11.612     189.251      24.953
  H      -11.064     187.596      25.074

 6  7  8  9  10  11  12  13  14  15  26  29  33  34 0
 6-311+G(2d,p)
 ****
 36  38  39  40  41 0
 6-311+G(2d,p)
 ****
 1  2  3  4  5  16  17  18  19  20  21  22  23  24  25 0
 3-21G
 ****
 27  28  30  31  32  35  37  42  43  44  45  46  47 0
 3-21G
 ****
 48  49 0
 3-21G
 ****


