%nproc=1
%NoSave
%Mem=1900MB
#P OB98/GEN NMR

erre ene a

0 1
  C      269.185    -952.813     395.473
  O      268.304    -953.055     396.548
  H      268.793    -951.983     394.878
  H      269.258    -953.699     394.831
  H      270.175    -952.543     395.849
  P      268.682    -954.270     397.529
  C      269.016    -952.383     399.249
  O      269.545    -953.583     398.699
  C      269.913    -951.874     400.385
  O      269.857    -952.830     401.469
  C      271.378    -951.713     399.979
  O      271.924    -950.559     400.613
  C      272.045    -952.958     400.538
  O      273.434    -952.766     400.792
  C      271.211    -953.223     401.796
  N      273.367    -956.547     405.009
  C      273.416    -955.193     404.937
  N      272.792    -954.390     404.050
  C      272.025    -955.104     403.212
  C      271.882    -956.472     403.161
  C      272.603    -957.213     404.114
  N      272.585    -958.586     404.179
  N      271.033    -956.840     402.120
  C      270.669    -955.699     401.572
  N      271.253    -954.625     402.185
  O      269.315    -955.451     396.875
  O      267.282    -954.555     398.250
  H      273.539    -952.043     401.440
  H      266.843    -953.727     398.515
  H      274.033    -954.698     405.677
  H      269.994    -955.589     400.723
  H      271.545    -952.630     402.656
  H      271.945    -953.792     399.827
  H      271.507    -951.639     398.895
  H      269.496    -950.932     400.767
  H      268.002    -952.552     399.631
  H      273.125    -959.039     404.909
  H      272.002    -959.105     403.533
  H      268.967    -951.638     398.448
  P      272.950    -949.647     399.779
  C      272.178    -947.459     400.909
  O      272.365    -948.157     399.674
  O      273.448    -950.232     398.505
  O      274.158    -949.467     400.818
  H      275.007    -949.485     400.345
  H      271.786    -946.483     400.711
  H      273.117    -947.371     401.414
  H      271.491    -948.001     401.525

 6  7  8  9  10  11  12  13  14  15  25  28  32  33  34  35 0
 6-311+G(2d,p)
 ****
 36  39  40 0
 6-311+G(2d,p)
 ****
 1  2  3  4  5  16  17  18  19  20  21  22  23  24 0
 3-21G
 ****
 26  27  29  30  31  37  38  41  42  43  44  45  46  47 0
 3-21G
 ****
 48 0
 3-21G
 ****


