%nproc=1
%NoSave
%Mem=1900MB
#P OB98/GEN NMR

erre ene a

0 1
  C     -268.735       1.284    -180.880
  O     -268.528      -0.057    -180.484
  H     -269.399       1.787    -180.171
  H     -267.772       1.799    -180.890
  H     -269.166       1.320    -181.885
  P     -269.826      -1.000    -180.434
  C     -270.963      -0.561    -178.144
  O     -270.057      -1.362    -178.888
  C     -271.613      -1.391    -177.042
  O     -272.512      -0.572    -176.268
  C     -272.452      -2.565    -177.538
  O     -271.646      -3.681    -177.883
  C     -273.297      -2.849    -176.306
  O     -272.526      -3.596    -175.347
  C     -273.571      -1.433    -175.773
  N     -278.626      -1.541    -174.987
  C     -277.600      -2.141    -174.345
  N     -276.279      -2.048    -174.599
  C     -276.054      -1.216    -175.629
  C     -276.991      -0.515    -176.368
  C     -278.337      -0.706    -176.016
  N     -279.384      -0.137    -176.726
  N     -276.380       0.228    -177.359
  C     -275.096      -0.038    -177.231
  N     -274.850      -0.898    -176.197
  O     -269.292      -2.371    -181.072
  O     -271.018      -0.477    -181.162
  H     -271.785      -3.023    -175.076
  H     -269.536      -2.400    -182.016
  H     -277.878      -2.787    -173.519
  H     -274.315       0.364    -177.863
  H     -273.537      -1.391    -174.677
  H     -274.195      -3.433    -176.527
  H     -273.109      -2.269    -178.363
  H     -270.819      -1.738    -176.368
  H     -271.740      -0.174    -178.810
  H     -280.239      -0.687    -176.697
  H     -279.119       0.247    -177.624
  H     -270.414       0.281    -177.711
  P     -271.804      -4.288    -179.358
  C     -274.104      -5.415    -178.998
  O     -272.713      -5.605    -179.214
  O     -270.343      -4.865    -179.666
  O     -272.233      -3.316    -180.405
  H     -269.999      -4.470    -180.491
  H     -274.586      -6.367    -178.921
  H     -274.521      -4.869    -179.818
  H     -274.252      -4.866    -178.092

 6  7  8  9  10  11  12  13  14  15  25  28  32  33  34  35 0
 6-311+G(2d,p)
 ****
 36  39  40 0
 6-311+G(2d,p)
 ****
 1  2  3  4  5  16  17  18  19  20  21  22  23  24 0
 3-21G
 ****
 26  27  29  30  31  37  38  41  42  43  44  45  46  47  48 0
 3-21G
 ****


