%nproc=1
%NoSave
%Mem=1900MB
#P OB98/GEN NMR

erre ene a

0 1
  C     -129.251      84.299    -168.279
  O     -128.521      83.376    -167.498
  H     -128.738      84.431    -169.236
  H     -129.304      85.265    -167.773
  H     -130.258      83.920    -168.468
  P     -129.074      83.080    -166.021
  C     -129.203      84.410    -163.794
  O     -128.788      84.398    -165.152
  C     -129.374      85.851    -163.325
  O     -130.191      86.581    -164.267
  C     -130.082      85.988    -161.985
  O     -129.223      85.716    -160.891
  C     -130.525      87.440    -162.040
  O     -129.473      88.328    -161.627
  C     -130.856      87.631    -163.536
  N     -132.294      87.645    -163.784
  C     -132.895      88.899    -163.769
  O     -132.277      89.942    -163.561
  N     -134.250      88.914    -163.963
  C     -135.047      87.819    -164.129
  O     -136.265      87.897    -164.227
  C     -134.353      86.521    -164.150
  C     -133.029      86.492    -163.971
  O     -128.028      82.012    -165.450
  O     -130.479      82.583    -165.960
  H     -128.418      81.118    -165.479
  H     -129.873      89.219    -161.578
  H     -134.706      89.812    -163.945
  H     -134.955      85.632    -164.287
  H     -132.500      85.545    -163.961
  H     -130.441      88.579    -163.900
  H     -131.372      87.627    -161.380
  H     -130.972      85.348    -161.958
  H     -128.384      86.325    -163.289
  H     -128.443      83.921    -163.176
  H     -130.141      83.854    -163.702
  P     -129.877      85.432    -159.455
  C     -130.996      86.955    -157.632
  O     -130.468      86.831    -158.939
  O     -128.570      85.207    -158.560
  O     -130.847      84.301    -159.451
  H     -127.826      85.773    -158.826
  H     -131.338      87.957    -157.479
  H     -130.235      86.725    -156.916
  H     -131.815      86.277    -157.512

 6  7  8  9  10  11  12  13  14  15  16  27  31  32  33  34  35 0
 6-311+G(2d,p)
 ****
 36  37 0
 6-311+G(2d,p)
 ****
 1  2  3  4  5  17  18  19  20  21  22  23  24  25 0
 3-21G
 ****
 26  28  29  30  38  39  40  41  42  43  44  45 0
 3-21G
 ****


