%nproc=1
%NoSave
%Mem=1900MB
#P OB98/GEN NMR

erre ene a

0 1
  C      588.324    -419.517     -90.137
  O      587.123    -420.155     -90.531
  H      588.885    -420.195     -89.487
  H      588.119    -418.596     -89.589
  H      588.939    -419.294     -91.018
  P      586.012    -419.271     -91.279
  C      584.154    -417.697     -90.410
  O      585.444    -418.254     -90.168
  C      583.239    -417.911     -89.202
  O      583.963    -417.671     -87.978
  C      582.055    -416.949     -89.151
  O      581.084    -417.170     -90.162
  C      581.643    -417.007     -87.690
  O      580.754    -418.079     -87.389
  C      583.006    -417.254     -86.986
  N      583.464    -416.072     -86.261
  C      582.802    -415.803     -85.060
  O      581.861    -416.489     -84.635
  N      583.216    -414.692     -84.386
  C      584.174    -413.805     -84.806
  O      584.475    -412.808     -84.172
  C      584.826    -414.139     -86.089
  C      584.448    -415.234     -86.739
  O      584.936    -420.042     -91.997
  O      586.870    -418.315     -92.238
  H      580.048    -418.059     -88.060
  H      586.299    -417.912     -92.946
  H      582.750    -414.484     -83.513
  H      585.592    -413.454     -86.451
  H      584.908    -415.494     -87.692
  H      582.919    -418.074     -86.264
  H      581.152    -416.078     -87.374
  H      582.434    -415.937     -89.327
  H      582.898    -418.951     -89.202
  H      583.721    -418.213     -91.283
  H      584.247    -416.630     -90.635
  P      580.108    -416.041     -90.702
  C      578.561    -414.246     -89.612
  O      579.222    -415.500     -89.461
  O      579.424    -416.300     -92.001
  O      581.127    -414.811     -90.927
  H      580.818    -414.300     -91.706
  H      578.018    -414.019     -88.718
  H      577.883    -414.297     -90.438
  H      579.286    -413.480     -89.793

 6  7  8  9  10  11  12  13  14  15  16  26  31  32  33  34  35 0
 6-311+G(2d,p)
 ****
 36  37 0
 6-311+G(2d,p)
 ****
 1  2  3  4  5  17  18  19  20  21  22  23  24  25 0
 3-21G
 ****
 27  28  29  30  38  39  40  41  42  43  44  45 0
 3-21G
 ****


