%nproc=1
%NoSave
%Mem=1900MB
#P OB98/GEN NMR

erre ene a

0 1
  C       73.525      60.830     109.988
  O       74.792      61.188     110.509
  H       73.031      61.732     109.619
  H       72.907      60.385     110.773
  H       73.645      60.127     109.159
  P       75.693      59.990     111.083
  C       74.673      60.270     113.448
  O       74.846      59.419     112.322
  C       74.702      59.459     114.741
  O       73.519      58.647     114.855
  C       75.879      58.496     114.851
  O       77.051      59.177     115.271
  C       75.365      57.544     115.921
  O       75.537      58.137     117.223
  C       73.866      57.440     115.586
  N       72.937      52.391     115.633
  C       73.459      53.216     116.565
  N       73.715      54.537     116.471
  C       73.380      55.002     115.255
  C       72.836      54.280     114.203
  C       72.605      52.911     114.429
  N       72.062      52.075     113.476
  N       72.623      55.093     113.110
  C       72.980      56.296     113.514
  N       73.477      56.287     114.793
  O       77.118      60.325     111.354
  O       75.457      58.869     109.963
  H       75.173      59.043     117.182
  H       74.533      58.879     109.657
  H       73.699      52.753     117.518
  H       72.881      57.204     112.929
  H       73.249      57.417     116.493
  H       75.910      56.597     115.929
  H       76.031      57.940     113.921
  H       74.693      60.166     115.580
  H       73.726      60.816     113.372
  H       72.090      51.083     113.659
  H       71.933      52.438     112.543
  H       75.492      60.997     113.440
  P       78.424      59.013     114.460
  C       79.299      57.263     116.130
  O       78.966      57.534     114.773
  O       79.421      60.099     114.683
  O       77.979      58.921     112.927
  H       78.617      59.392     112.357
  H       79.646      56.255     116.218
  H       78.433      57.397     116.743
  H       80.069      57.934     116.449

 6  7  8  9  10  11  12  13  14  15  25  28  32  33  34  35 0
 6-311+G(2d,p)
 ****
 36  39  40 0
 6-311+G(2d,p)
 ****
 1  2  3  4  5  16  17  18  19  20  21  22  23  24 0
 3-21G
 ****
 26  27  29  30  31  37  38  41  42  43  44  45  46  47 0
 3-21G
 ****
 48 0
 3-21G
 ****


