%nproc=1
%NoSave
%Mem=1900MB
#P OB98/GEN NMR

erre ene a

0 1
  C      430.538    -107.249      14.488
  O      431.721    -106.610      14.915
  P      431.835    -105.013      14.961
  C      433.411    -103.816      13.313
  O      432.191    -104.532      13.467
  C      433.330    -102.888      12.094
  O      433.162    -103.708      10.895
  C      432.144    -101.905      12.167
  O      432.501    -100.536      11.978
  C      431.173    -102.475      11.147
  O      430.221    -101.539      10.671
  C      432.127    -103.077      10.111
  N      431.461    -104.017       9.211
  C      432.026    -104.199       7.955
  O      433.042    -103.635       7.559
  N      431.340    -105.023       7.104
  C      430.117    -105.578       7.339
  O      429.515    -106.226       6.493
  C      429.552    -105.318       8.670
  C      430.245    -104.579       9.543
  O      432.739    -104.467      16.013
  O      430.310    -104.547      15.105
  H      429.901    -101.024      11.437
  H      429.725    -104.827      14.381
  H      431.739    -105.165       6.189
  H      428.578    -105.734       8.880
  H      429.852    -104.372      10.532
  H      432.603    -102.303       9.508
  H      430.611    -103.281      11.635
  H      431.680    -101.921      13.160
  H      434.281    -102.353      12.018
  H      434.224    -104.530      13.165
  H      433.628    -103.251      14.227
  P      431.545     -99.286      12.276
  C      429.197     -98.536      11.444
  O      430.104     -99.601      11.658
  O      432.110     -97.954      11.916
  O      431.291     -99.380      13.855
  H      431.133     -98.490      14.215
  H      428.178     -98.924      11.518
  H      429.346     -98.134      10.437
  H      429.329     -97.740      12.179
  H      430.670    -108.310      14.532
  H      430.319    -106.958      13.482
  H      429.728    -106.963      15.126

 3  4  5  6  7  8  9  10  11  12  13  23  28  29  30  31  32 0
 6-311+G(2d,p)
 ****
 33  34 0
 6-311+G(2d,p)
 ****
 1  2  14  15  16  17  18  19  20  21  22  24  25  26  27 0
 3-21G
 ****
 35  36  37  38  39  40  41  42  43  44  45 0
 3-21G
 ****


