%nproc=1
%NoSave
%Mem=1900MB
#P OB98/GEN NMR

erre ene a

0 1
  C      -18.183     -49.673    -208.967
  O      -18.111     -49.565    -210.371
  H      -19.163     -49.321    -208.636
  H      -17.415     -49.048    -208.504
  H      -18.056     -50.712    -208.652
  P      -16.815     -50.173    -211.094
  C      -18.263     -52.028    -212.190
  O      -17.135     -51.720    -211.386
  C      -18.296     -53.523    -212.511
  O      -17.167     -53.844    -213.364
  C      -18.218     -54.419    -211.272
  O      -19.072     -55.549    -211.471
  C      -16.771     -54.876    -211.249
  O      -16.596     -56.114    -210.561
  C      -16.435     -54.919    -212.745
  N      -14.999     -54.800    -212.975
  C      -14.233     -55.952    -212.771
  O      -14.773     -56.998    -212.405
  N      -12.873     -55.880    -212.927
  C      -12.315     -54.737    -213.179
  N      -10.959     -54.725    -213.292
  C      -13.077     -53.483    -213.335
  C      -14.401     -53.588    -213.230
  O      -15.732     -50.239    -209.921
  O      -16.326     -49.408    -212.278
  H      -15.683     -56.433    -210.730
  H      -14.828     -50.107    -210.264
  H      -12.565     -52.550    -213.519
  H      -15.042     -52.720    -213.322
  H      -16.787     -55.858    -213.193
  H      -16.157     -54.121    -210.744
  H      -18.504     -53.906    -210.351
  H      -19.203     -53.734    -213.090
  H      -10.471     -55.602    -213.161
  H      -18.196     -51.466    -213.127
  H      -10.417     -53.887    -213.442
  H      -19.177     -51.731    -211.665
  P      -19.888     -56.070    -210.195
  C      -22.296     -55.333    -210.830
  O      -21.165     -55.121    -209.997
  O      -18.936     -55.689    -208.966
  O      -20.186     -57.533    -210.230
  H      -18.537     -56.496    -208.592
  H      -23.061     -54.627    -210.580
  H      -22.666     -56.326    -210.684
  H      -22.014     -55.205    -211.854

 6  7  8  9  10  11  12  13  14  15  16  26  30  31  32  33  35 0
 6-311+G(2d,p)
 ****
 37  38 0
 6-311+G(2d,p)
 ****
 1  2  3  4  5  17  18  19  20  21  22  23  24  25 0
 3-21G
 ****
 27  28  29  34  36  39  40  41  42  43  44  45  46 0
 3-21G
 ****


