%nproc=1
%NoSave
%Mem=1900MB
#P OB98/GEN NMR

erre ene a

0 1
  C      115.071      -6.411      64.985
  O      115.794      -5.989      63.851
  H      115.303      -7.462      65.176
  H      113.999      -6.317      64.793
  H      115.338      -5.828      65.870
  P      116.007      -4.423      63.613
  C      117.709      -4.193      65.540
  O      116.464      -3.763      65.005
  C      118.308      -3.152      66.485
  O      118.845      -2.053      65.719
  C      117.268      -2.558      67.439
  O      117.077      -3.297      68.634
  C      117.861      -1.183      67.734
  O      118.765      -1.232      68.850
  C      118.616      -0.838      66.446
  N      117.118       0.591      61.772
  C      118.012      -0.402      62.130
  N      118.601      -1.063      61.111
  N      118.303      -0.694      63.371
  C      117.711       0.119      64.274
  C      116.825       1.146      64.038
  C      116.451       1.415      62.666
  O      115.653       2.270      62.298
  N      116.463       1.778      65.203
  C      117.197       1.190      66.126
  N      117.908       0.126      65.624
  O      114.513      -3.865      63.442
  O      116.845      -4.058      62.425
  H      119.408      -1.949      68.687
  H      114.517      -3.100      62.838
  H      116.912       0.750      60.802
  H      117.216       1.462      67.175
  H      119.601      -0.407      66.664
  H      117.076      -0.469      67.997
  H      118.479      -0.822      60.142
  H      116.312      -2.414      66.929
  H      119.399      -1.665      61.325
  H      119.145      -3.600      67.033
  H      118.374      -4.354      64.690
  H      117.591      -5.152      66.052
  P      115.706      -3.199      69.449
  C      114.430      -4.805      67.811
  O      114.506      -3.556      68.461
  O      115.537      -1.626      69.683
  O      115.665      -3.964      70.731
  H      115.835      -1.377      70.578
  H      113.553      -4.836      67.199
  H      114.383      -5.585      68.542
  H      115.297      -4.942      67.199

 6  7  8  9  10  11  12  13  14  15  26  29  33  34 0
 6-311+G(2d,p)
 ****
 36  38  39  40  41 0
 6-311+G(2d,p)
 ****
 1  2  3  4  5  16  17  18  19  20  21  22  23  24  25 0
 3-21G
 ****
 27  28  30  31  32  35  37  42  43  44  45  46  47 0
 3-21G
 ****
 48  49 0
 3-21G
 ****


