%nproc=1
%NoSave
%Mem=1900MB
#P OB98/GEN NMR

erre ene a

0 1
  C      -32.540    -442.191     457.702
  O      -31.165    -442.457     457.908
  H      -32.837    -441.293     458.255
  H      -32.713    -442.023     456.636
  H      -33.144    -443.044     458.028
  P      -30.693    -442.694     459.423
  C      -31.337    -444.317     461.341
  O      -31.534    -443.948     459.982
  C      -32.552    -445.095     461.852
  O      -33.678    -444.181     461.931
  C      -32.968    -446.286     460.972
  O      -32.953    -447.494     461.737
  C      -34.401    -445.982     460.574
  O      -35.252    -447.135     460.593
  C      -34.844    -444.946     461.602
  N      -39.892    -444.234     461.405
  C      -39.117    -444.907     462.282
  N      -37.773    -444.970     462.342
  C      -37.217    -444.217     461.375
  C      -37.871    -443.457     460.424
  C      -39.278    -443.496     460.449
  N      -40.068    -442.854     459.514
  N      -36.968    -442.824     459.591
  C      -35.788    -443.232     460.008
  N      -35.888    -444.087     461.072
  O      -31.321    -441.443     460.202
  O      -29.217    -442.784     459.620
  H      -34.912    -447.742     459.911
  H      -30.643    -441.037     460.775
  H      -39.656    -445.483     463.039
  H      -34.833    -442.975     459.553
  H      -35.218    -445.409     462.525
  H      -34.414    -445.568     459.563
  H      -32.327    -446.401     460.087
  H      -32.341    -445.433     462.870
  H      -31.214    -443.418     461.952
  H      -41.060    -443.036     459.539
  H      -39.619    -442.393     458.733
  H      -30.429    -444.923     461.421
  P      -31.724    -448.501     461.477
  C      -29.457    -447.946     462.640
  O      -30.781    -448.451     462.775
  O      -30.862    -447.732     460.367
  O      -32.138    -449.858     461.023
  H      -30.357    -448.374     459.833
  H      -28.964    -447.980     463.589
  H      -29.495    -446.934     462.294
  H      -28.917    -448.544     461.936

 6  7  8  9  10  11  12  13  14  15  25  28  32  33  34  35 0
 6-311+G(2d,p)
 ****
 36  39  40 0
 6-311+G(2d,p)
 ****
 1  2  3  4  5  16  17  18  19  20  21  22  23  24 0
 3-21G
 ****
 26  27  29  30  31  37  38  41  42  43  44  45  46  47  48 0
 3-21G
 ****


