%nproc=1
%NoSave
%Mem=1900MB
#P OB98/GEN NMR

erre ene a

0 1
  C      415.835    -179.015     117.936
  O      414.653    -179.818     117.796
  P      413.180    -179.178     117.798
  C      411.801    -177.775     116.129
  O      412.779    -178.806     116.287
  C      410.982    -177.967     114.844
  O      411.850    -178.076     113.698
  C      410.105    -179.211     114.831
  O      408.926    -178.999     115.588
  C      409.885    -179.406     113.333
  O      408.838    -178.530     112.863
  C      411.242    -178.980     112.755
  N      412.878    -182.236     109.157
  C      412.012    -181.196     109.117
  N      411.619    -180.379     110.121
  C      412.246    -180.710     111.262
  C      413.147    -181.741     111.459
  C      413.460    -182.533     110.345
  N      414.324    -183.604     110.402
  N      413.550    -181.790     112.782
  C      412.922    -180.781     113.362
  N      412.120    -180.097     112.486
  O      413.004    -178.062     118.770
  O      412.204    -180.398     118.153
  H      408.985    -177.659     113.269
  H      411.405    -180.061     118.596
  H      411.579    -180.992     108.140
  H      413.017    -180.510     114.408
  H      411.121    -178.421     111.816
  H      409.592    -180.427     113.080
  H      410.660    -180.070     115.232
  H      410.372    -177.066     114.704
  H      412.323    -176.813     116.091
  H      414.472    -184.145     109.563
  H      414.731    -183.860     111.293
  H      411.141    -177.794     116.995
  P      408.919    -179.304     117.165
  C      409.081    -177.947     119.338
  O      408.971    -177.896     117.925
  O      409.915    -180.319     117.631
  O      407.421    -179.793     117.441
  H      407.409    -180.417     118.194
  H      408.091    -178.135     119.765
  H      409.444    -176.988     119.692
  H      409.776    -178.721     119.648
  H      416.700    -179.645     117.907
  H      415.804    -178.494     118.870
  H      415.883    -178.308     117.135

 3  4  5  6  7  8  9  10  11  12  22  25  29  30  31  32 0
 6-311+G(2d,p)
 ****
 33  36  37 0
 6-311+G(2d,p)
 ****
 1  2  13  14  15  16  17  18  19  20  21  23  24  26 0
 3-21G
 ****
 27  28  34  35  38  39  40  41  42  43  44  45  46  47  48 0
 3-21G
 ****


