%nproc=1
%NoSave
%Mem=1900MB
#P OB98/GEN NMR

erre ene a

0 1
  C      778.678    -769.868    -899.157
  O      778.180    -769.251    -897.947
  P      778.859    -769.691    -896.557
  C      779.555    -767.221    -896.177
  O      779.944    -768.592    -896.167
  C      780.213    -766.469    -895.017
  O      779.861    -767.080    -893.727
  C      781.734    -766.439    -895.047
  O      782.224    -765.403    -895.887
  C      782.084    -766.136    -893.597
  O      781.928    -764.714    -893.357
  C      781.017    -766.935    -892.857
  N      784.283    -769.409    -889.867
  C      784.094    -768.047    -890.047
  N      784.887    -767.235    -889.327
  N      783.218    -767.542    -890.857
  C      782.481    -768.463    -891.507
  C      782.579    -769.854    -891.447
  C      783.591    -770.395    -890.547
  O      783.827    -771.607    -890.357
  N      781.676    -770.467    -892.247
  C      781.029    -769.477    -892.817
  N      781.476    -768.254    -892.417
  O      779.759    -770.955    -896.977
  O      777.877    -770.053    -895.497
  H      782.186    -764.279    -894.207
  H      779.854    -771.553    -896.227
  H      784.995    -769.753    -889.257
  H      780.197    -769.629    -893.537
  H      780.650    -766.413    -891.937
  H      783.124    -766.399    -893.377
  H      785.562    -767.550    -888.627
  H      782.129    -767.438    -895.347
  H      784.738    -766.226    -889.397
  H      779.818    -765.442    -895.017
  H      778.475    -767.118    -896.117
  H      779.833    -766.773    -897.137
  P      783.697    -765.562    -896.497
  C      782.662    -767.181    -898.247
  O      783.707    -766.927    -897.337
  O      784.587    -765.884    -895.207
  O      784.207    -764.348    -897.227
  H      785.499    -765.516    -895.317
  H      782.920    -768.079    -898.847
  H      782.512    -766.329    -898.937
  H      781.723    -767.371    -897.687
  H      778.141    -769.486    -900.000
  H      778.543    -770.928    -899.099
  H      779.719    -769.647    -899.268

 3  4  5  6  7  8  9  10  11  12  23  26  30  31 0
 6-311+G(2d,p)
 ****
 33  35  36  37  38 0
 6-311+G(2d,p)
 ****
 1  2  13  14  15  16  17  18  19  20  21  22  24  25 0
 3-21G
 ****
 27  28  29  32  34  39  40  41  42  43  44  45  46  47  48  49 0
 3-21G
 ****


