%nproc=1
%NoSave
%Mem=1900MB
#P OB98/GEN NMR

erre ene a

0 1
  C      164.503    -193.620    -111.937
  O      165.695    -193.772    -111.194
  H      164.605    -194.169    -112.875
  H      164.327    -192.565    -112.166
  H      163.654    -194.030    -111.381
  P      165.836    -193.006    -109.793
  C      164.881    -194.921    -108.343
  O      166.024    -194.134    -108.664
  C      165.282    -196.094    -107.439
  O      166.519    -196.648    -107.958
  C      165.519    -195.659    -105.984
  O      164.775    -196.436    -105.043
  C      167.039    -195.656    -105.866
  O      167.522    -195.857    -104.552
  C      167.470    -196.720    -106.879
  N      168.832    -196.538    -107.382
  C      169.864    -196.512    -106.444
  O      169.716    -196.637    -105.231
  N      171.122    -196.328    -106.956
  C      171.444    -196.165    -108.275
  O      172.591    -196.010    -108.671
  C      170.310    -196.174    -109.212
  C      169.077    -196.358    -108.731
  O      164.771    -192.003    -109.497
  O      167.283    -192.325    -109.865
  H      168.498    -195.768    -104.587
  H      167.184    -191.366    -110.020
  H      171.880    -196.321    -106.291
  H      170.526    -196.034    -110.263
  H      168.217    -196.374    -109.396
  H      167.411    -197.717    -106.437
  H      167.410    -194.678    -106.197
  H      165.147    -194.641    -105.817
  H      164.514    -196.871    -107.510
  H      164.456    -195.292    -109.284
  H      164.136    -194.299    -107.836
  P      164.033    -195.853    -103.757
  C      161.734    -195.095    -104.785
  O      162.455    -196.003    -103.964
  O      164.524    -194.534    -103.261
  O      164.349    -196.946    -102.611
  H      164.395    -196.453    -101.764
  H      160.699    -195.366    -104.793
  H      162.120    -195.132    -105.782
  H      161.840    -194.103    -104.398

 6  7  8  9  10  11  12  13  14  15  16  26  31  32  33  34  35 0
 6-311+G(2d,p)
 ****
 36  37 0
 6-311+G(2d,p)
 ****
 1  2  3  4  5  17  18  19  20  21  22  23  24  25 0
 3-21G
 ****
 27  28  29  30  38  39  40  41  42  43  44  45 0
 3-21G
 ****


