%nproc=1
%NoSave
%Mem=1900MB
#P OB98/GEN NMR

erre ene a

0 1
  C     -283.681     361.731     119.962
  O     -282.744     360.710     119.586
  P     -282.309     359.509     120.559
  C     -283.994     357.555     120.378
  O     -282.789     358.129     119.892
  C     -283.938     356.024     120.301
  O     -284.895     355.442     121.216
  C     -284.304     355.431     118.949
  O     -283.290     355.616     117.982
  C     -284.557     353.971     119.324
  O     -283.334     353.223     119.359
  C     -285.141     354.093     120.747
  N     -286.556     353.767     120.808
  C     -286.879     352.429     121.046
  O     -285.996     351.575     121.111
  N     -288.205     352.092     121.187
  C     -289.122     352.987     121.003
  N     -290.416     352.596     121.171
  C     -288.826     354.377     120.614
  C     -287.536     354.696     120.539
  O     -282.755     359.681     121.970
  O     -280.711     359.447     120.460
  H     -280.350     359.065     121.282
  H     -282.736     353.684     119.981
  H     -289.625     355.082     120.426
  H     -287.229     355.702     120.273
  H     -284.591     353.445     121.439
  H     -285.221     353.470     118.611
  H     -285.241     355.883     118.598
  H     -282.930     355.706     120.598
  H     -290.584     351.637     121.448
  H     -284.826     357.910     119.758
  H     -291.204     353.222     121.074
  H     -284.164     357.889     121.409
  P     -283.601     356.636     116.786
  C     -282.327     358.877     117.076
  O     -282.307     357.556     116.576
  O     -284.686     357.631     117.412
  O     -284.116     355.990     115.543
  H     -285.354     357.858     116.739
  H     -281.303     359.184     117.299
  H     -282.930     358.957     117.986
  H     -282.735     359.546     116.312
  H     -283.807     362.416     119.150
  H     -283.311     362.257     120.817
  H     -284.622     361.281     120.199

 3  4  5  6  7  8  9  10  11  12  13  24  27  28  29  30  32 0
 6-311+G(2d,p)
 ****
 34  35 0
 6-311+G(2d,p)
 ****
 1  2  14  15  16  17  18  19  20  21  22  23  25  26 0
 3-21G
 ****
 31  33  36  37  38  39  40  41  42  43  44  45  46 0
 3-21G
 ****


