%nproc=1
%NoSave
%Mem=1900MB
#P OB98/GEN NMR

erre ene a

0 1
  C       80.229     540.218     496.906
  O       81.587     540.581     497.006
  H       80.134     539.151     497.131
  H       79.879     540.393     495.886
  H       79.611     540.781     497.610
  P       81.961     542.126     497.181
  C       83.326     541.961     494.997
  O       82.371     542.708     495.740
  C       83.053     542.028     493.492
  O       81.751     541.469     493.215
  C       83.042     543.463     492.961
  O       84.315     543.961     492.588
  C       82.124     543.342     491.746
  O       82.861     542.978     490.570
  C       81.159     542.220     492.147
  N       76.106     541.443     492.357
  C       77.067     540.712     491.685
  N       76.617     539.672     490.952
  N       78.342     540.997     491.722
  C       78.631     542.121     492.414
  C       77.761     542.936     493.105
  C       76.362     542.575     493.120
  O       75.474     543.179     493.712
  N       78.412     544.016     493.654
  C       79.654     543.898     493.226
  N       79.852     542.719     492.536
  O       83.368     542.086     497.950
  O       80.964     542.949     497.942
  H       83.448     543.728     490.339
  H       83.451     542.872     498.522
  H       75.145     541.160     492.316
  H       80.450     544.603     493.416
  H       80.992     541.522     491.315
  H       81.636     544.297     491.532
  H       75.640     539.464     490.820
  H       82.570     544.138     493.681
  H       77.260     539.230     490.294
  H       83.788     541.409     492.964
  H       83.255     540.932     495.346
  H       84.339     542.312     495.217
  P       84.884     545.312     493.223
  C       85.252     546.454     490.886
  O       84.671     546.495     492.171
  O       86.469     545.081     493.198
  O       84.385     545.640     494.593
  H       86.787     544.793     494.074
  H       84.986     547.338     490.346
  H       84.894     545.594     490.360
  H       86.317     546.399     490.978

 6  7  8  9  10  11  12  13  14  15  26  29  33  34 0
 6-311+G(2d,p)
 ****
 36  38  39  40  41 0
 6-311+G(2d,p)
 ****
 1  2  3  4  5  16  17  18  19  20  21  22  23  24  25 0
 3-21G
 ****
 27  28  30  31  32  35  37  42  43  44  45  46  47 0
 3-21G
 ****
 48  49 0
 3-21G
 ****


