%nproc=1
%NoSave
%Mem=1900MB
#P OB98/GEN NMR

erre ene a

0 1
  C      131.707    -837.621     590.423
  O      132.446    -837.335     589.234
  P      132.621    -838.422     588.064
  C      134.608    -839.689     589.087
  O      133.265    -839.787     588.646
  C      135.311    -841.062     589.220
  O      136.646    -840.912     589.782
  C      134.563    -842.079     590.102
  O      134.865    -843.372     589.555
  C      135.259    -841.889     591.453
  O      135.060    -842.982     592.336
  C      136.700    -841.689     590.998
  N      138.367    -841.830     595.837
  C      137.727    -842.749     595.077
  N      137.349    -842.655     593.790
  C      137.729    -841.474     593.269
  C      138.394    -840.453     593.915
  C      138.718    -840.650     595.277
  N      139.331    -839.701     596.048
  N      138.602    -839.384     593.058
  C      138.054    -839.758     591.919
  N      137.517    -841.017     591.997
  O      133.312    -837.901     586.834
  O      131.118    -838.854     587.693
  H      135.358    -842.714     593.218
  H      131.014    -838.869     586.729
  H      137.479    -843.683     595.592
  H      137.992    -839.147     591.008
  H      137.183    -842.640     590.759
  H      134.854    -840.993     591.936
  H      133.487    -841.905     590.143
  H      135.449    -841.452     588.209
  H      134.640    -839.170     590.064
  H      139.425    -839.909     597.042
  H      139.472    -838.771     595.676
  H      135.170    -839.064     588.366
  P      133.781    -844.177     588.701
  C      132.214    -844.810     590.625
  O      132.383    -844.020     589.470
  O      134.164    -845.593     588.401
  O      133.574    -843.322     587.361
  H      133.177    -843.879     586.668
  H      131.992    -845.857     590.335
  H      131.367    -844.429     591.204
  H      133.107    -844.794     591.255
  H      131.717    -836.764     591.064
  H      132.154    -838.451     590.930
  H      130.697    -837.863     590.166

 3  4  5  6  7  8  9  10  11  12  22  25  29  30  31  32 0
 6-311+G(2d,p)
 ****
 33  36  37 0
 6-311+G(2d,p)
 ****
 1  2  13  14  15  16  17  18  19  20  21  23  24  26 0
 3-21G
 ****
 27  28  34  35  38  39  40  41  42  43  44  45  46  47  48 0
 3-21G
 ****


