%nproc=1
%NoSave
%Mem=1900MB
#P OB98/GEN NMR

erre ene a

0 1
  C        5.460    -263.485    -132.744
  O        4.287    -263.862    -133.435
  H        5.329    -263.714    -131.681
  H        5.633    -262.409    -132.850
  H        6.324    -264.040    -133.115
  P        4.264    -263.756    -135.036
  C        4.927    -261.989    -136.790
  O        4.720    -262.265    -135.410
  C        4.819    -260.484    -137.040
  O        5.750    -259.769    -136.196
  C        5.150    -260.070    -138.471
  O        4.089    -260.385    -139.347
  C        5.416    -258.585    -138.278
  O        4.183    -257.847    -138.191
  C        6.149    -258.578    -136.917
  N        7.604    -258.514    -137.058
  C        8.293    -257.859    -136.040
  O        7.733    -257.347    -135.067
  N        9.651    -257.764    -136.200
  C       10.357    -258.175    -137.296
  O       11.531    -257.876    -137.493
  C        9.590    -258.929    -138.300
  C        8.270    -259.046    -138.147
  O        3.010    -264.220    -135.700
  O        5.527    -264.638    -135.486
  H        5.216    -265.516    -135.790
  H        4.422    -256.946    -137.895
  H       10.152    -257.247    -135.492
  H       10.124    -259.326    -139.157
  H        7.680    -259.575    -138.889
  H        5.827    -257.720    -136.312
  H        5.988    -258.153    -139.101
  H        6.079    -260.556    -138.798
  H        3.803    -260.167    -136.768
  H        4.158    -262.511    -137.371
  H        5.911    -262.362    -137.088
  P        4.350    -260.737    -140.889
  C        4.474    -259.405    -143.074
  O        4.659    -259.367    -141.662
  O        3.309    -261.593    -141.530
  O        5.777    -261.477    -140.878
  H        5.690    -262.333    -141.341
  H        4.705    -258.447    -143.490
  H        3.457    -259.653    -143.294
  H        5.121    -260.144    -143.499

 6  7  8  9  10  11  12  13  14  15  16  27  31  32  33  34  35 0
 6-311+G(2d,p)
 ****
 36  37 0
 6-311+G(2d,p)
 ****
 1  2  3  4  5  17  18  19  20  21  22  23  24  25 0
 3-21G
 ****
 26  28  29  30  38  39  40  41  42  43  44  45 0
 3-21G
 ****


