%nproc=1
%NoSave
%Mem=1900MB
#P OB98/GEN NMR

erre ene a

0 1
  C      125.686     -55.717     -36.266
  O      124.752     -55.983     -37.292
  H      126.275     -56.620     -36.086
  H      125.165     -55.452     -35.343
  H      126.365     -54.910     -36.555
  P      123.897     -54.767     -37.892
  C      121.704     -55.363     -36.673
  O      122.762     -54.422     -36.815
  C      120.426     -54.649     -36.244
  O      120.497     -54.297     -34.846
  C      120.166     -53.343     -36.987
  O      119.686     -53.593     -38.295
  C      119.164     -52.681     -36.052
  O      117.847     -53.212     -36.254
  C      119.720     -53.091     -34.666
  N      120.519     -52.044     -34.033
  C      120.411     -51.934     -32.651
  O      119.663     -52.640     -31.977
  N      121.185     -50.967     -32.066
  C      121.970     -50.064     -32.724
  O      122.604     -49.180     -32.155
  C      122.019     -50.205     -34.186
  C      121.303     -51.173     -34.764
  O      123.403     -54.947     -39.289
  O      124.892     -53.516     -37.777
  H      117.286     -52.844     -35.544
  H      125.301     -53.339     -38.644
  H      121.112     -50.864     -31.066
  H      122.627     -49.504     -34.741
  H      121.320     -51.288     -35.842
  H      118.896     -53.349     -33.989
  H      119.096     -51.604     -36.204
  H      121.077     -52.734     -37.015
  H      119.586     -55.345     -36.374
  H      121.987     -56.097     -35.908
  H      121.560     -55.880     -37.627
  P      120.369     -52.897     -39.563
  C      119.139     -50.693     -39.129
  O      120.408     -51.315     -39.285
  O      119.797     -53.281     -40.887
  O      121.910     -53.322     -39.455
  H      122.114     -53.999     -40.129
  H      119.274     -49.647     -38.949
  H      118.625     -51.134     -38.300
  H      118.563     -50.830     -40.020

 6  7  8  9  10  11  12  13  14  15  16  26  31  32  33  34  35 0
 6-311+G(2d,p)
 ****
 36  37 0
 6-311+G(2d,p)
 ****
 1  2  3  4  5  17  18  19  20  21  22  23  24  25 0
 3-21G
 ****
 27  28  29  30  38  39  40  41  42  43  44  45 0
 3-21G
 ****


