%nproc=1
%NoSave
%Mem=1900MB
#P OB98/GEN NMR

erre ene a

0 1
  C       39.874      63.912     -83.408
  O       39.449      62.567     -83.352
  P       40.398      61.418     -82.767
  C       41.609      59.404     -83.827
  O       41.118      60.725     -84.028
  C       42.795      59.129     -84.760
  O       43.833      60.125     -84.500
  C       43.414      57.733     -84.545
  O       43.541      56.953     -85.735
  C       44.719      58.050     -83.830
  O       45.690      57.027     -83.925
  C       45.083      59.410     -84.439
  N       46.095      60.119     -83.659
  C       47.416      59.708     -83.810
  O       47.782      58.803     -84.555
  N       48.334      60.337     -83.013
  C       48.057      61.231     -82.023
  O       48.919      61.681     -81.280
  C       46.637      61.598     -81.883
  C       45.738      61.055     -82.707
  O       39.740      60.459     -81.834
  O       41.604      62.243     -82.110
  H       46.058      57.045     -84.830
  H       42.096      62.813     -82.729
  H       49.295      60.047     -83.112
  H       46.387      62.297     -81.099
  H       44.686      61.306     -82.629
  H       45.448      59.304     -85.462
  H       44.493      58.178     -82.763
  H       42.782      57.119     -83.891
  H       42.445      59.253     -85.788
  H       40.809      58.693     -84.046
  H       41.890      59.269     -82.776
  P       43.055      55.436     -85.897
  C       43.595      53.162     -84.757
  O       43.935      54.524     -84.922
  O       42.958      54.947     -87.304
  O       41.614      55.431     -85.198
  H       41.053      54.748     -85.613
  H       43.913      52.840     -83.760
  H       44.127      52.565     -85.503
  H       42.518      53.000     -84.856
  H       39.097      64.514     -83.829
  H       40.751      63.984     -84.017
  H       40.097      64.257     -82.420

 3  4  5  6  7  8  9  10  11  12  13  23  28  29  30  31  32 0
 6-311+G(2d,p)
 ****
 33  34 0
 6-311+G(2d,p)
 ****
 1  2  14  15  16  17  18  19  20  21  22  24  25  26  27 0
 3-21G
 ****
 35  36  37  38  39  40  41  42  43  44  45 0
 3-21G
 ****


