%nproc=1
%NoSave
%Mem=1900MB
#P OB98/GEN NMR

erre ene a

0 1
  C     -250.564     347.336    -128.926
  O     -250.802     346.773    -130.197
  H     -251.364     348.055    -128.714
  H     -249.608     347.870    -128.911
  H     -250.577     346.566    -128.154
  P     -249.680     345.822    -130.850
  C     -249.452     347.459    -132.814
  O     -249.758     346.124    -132.435
  C     -250.087     347.822    -134.161
  O     -249.813     346.772    -135.129
  C     -251.610     348.008    -134.097
  O     -251.974     349.202    -134.788
  C     -252.152     346.785    -134.828
  O     -253.457     347.016    -135.359
  C     -251.039     346.533    -135.851
  N     -251.082     345.192    -136.423
  C     -252.094     344.940    -137.353
  O     -252.917     345.821    -137.632
  N     -252.176     343.694    -137.924
  C     -251.357     342.763    -137.561
  N     -251.494     341.545    -138.150
  C     -250.299     342.968    -136.540
  C     -250.218     344.198    -136.022
  O     -249.791     344.381    -130.479
  O     -248.290     346.492    -130.425
  H     -253.794     346.177    -135.732
  H     -247.563     345.822    -130.506
  H     -249.650     342.161    -136.252
  H     -249.466     344.440    -135.274
  H     -251.097     347.266    -136.677
  H     -252.213     345.937    -134.128
  H     -252.000     348.068    -133.081
  H     -249.592     348.723    -134.548
  H     -252.228     341.448    -138.844
  H     -248.358     347.565    -132.870
  H     -250.912     340.744    -137.933
  H     -249.842     348.135    -132.045
  P     -252.466     350.433    -133.874
  C     -254.522     351.236    -135.243
  O     -253.183     351.507    -134.832
  O     -251.099     351.145    -133.455
  O     -253.261     350.008    -132.689
  H     -250.847     350.888    -132.545
  H     -254.869     352.029    -135.872
  H     -255.152     351.163    -134.381
  H     -254.549     350.313    -135.784

 6  7  8  9  10  11  12  13  14  15  16  26  30  31  32  33  35 0
 6-311+G(2d,p)
 ****
 37  38 0
 6-311+G(2d,p)
 ****
 1  2  3  4  5  17  18  19  20  21  22  23  24  25 0
 3-21G
 ****
 27  28  29  34  36  39  40  41  42  43  44  45  46 0
 3-21G
 ****


