%nproc=1
%NoSave
%Mem=1900MB
#P OB98/GEN NMR

erre ene a

0 1
  C     -891.070     643.414     169.912
  O     -892.380     643.442     170.462
  H     -891.070     642.714     169.070
  H     -890.350     643.074     170.660
  H     -890.790     644.405     169.545
  P     -892.570     644.377     171.756
  C     -892.550     643.982     174.323
  O     -892.590     643.397     173.030
  C     -893.380     643.164     175.302
  O     -894.790     643.378     175.090
  C     -893.150     641.661     175.229
  O     -892.010     641.279     175.985
  C     -894.450     641.132     175.815
  O     -894.420     641.184     177.259
  C     -895.480     642.115     175.251
  N     -899.160     639.352     173.149
  C     -898.780     639.466     174.461
  N     -899.460     638.722     175.367
  N     -897.800     640.246     174.884
  C     -897.180     640.888     173.873
  C     -897.450     640.862     172.522
  C     -898.560     640.037     172.090
  O     -899.000     639.951     170.944
  N     -896.600     641.669     171.811
  C     -895.790     642.158     172.734
  N     -896.090     641.715     173.993
  O     -894.100     644.852     171.642
  O     -891.650     645.544     171.852
  H     -893.810     640.511     177.598
  H     -894.170     645.782     171.941
  H     -899.930     638.760     172.888
  H     -894.970     642.850     172.536
  H     -896.310     642.286     175.953
  H     -894.610     640.084     175.557
  H     -900.000     637.916     175.083
  H     -893.060     641.326     174.183
  H     -899.120     638.750     176.320
  H     -893.150     643.533     176.318
  H     -892.950     644.995     174.261
  H     -891.520     644.036     174.656
  P     -891.310     639.880     175.628
  C     -891.100     637.627     176.890
  O     -891.900     638.761     176.616
  O     -889.810     640.098     176.177
  O     -891.300     639.531     174.176
  H     -889.200     640.230     175.421
  H     -891.622     636.975     177.559
  H     -890.181     637.939     177.341
  H     -890.891     637.109     175.977

 6  7  8  9  10  11  12  13  14  15  26  29  33  34 0
 6-311+G(2d,p)
 ****
 36  38  39  40  41 0
 6-311+G(2d,p)
 ****
 1  2  3  4  5  16  17  18  19  20  21  22  23  24  25 0
 3-21G
 ****
 27  28  30  31  32  35  37  42  43  44  45  46  47 0
 3-21G
 ****
 48  49 0
 3-21G
 ****


