%nproc=1
%NoSave
%Mem=1900MB
#P OB98/GEN NMR

erre ene a

0 1
  C      264.690     681.046    -280.245
  O      263.974     681.913    -281.107
  P      264.645     683.332    -281.461
  C      264.482     684.343    -279.068
  O      264.041     684.394    -280.422
  C      264.448     685.736    -278.452
  O      265.418     686.597    -279.087
  C      263.111     686.456    -278.607
  O      262.163     686.047    -277.634
  C      263.530     687.900    -278.358
  O      263.656     688.147    -276.945
  C      264.909     687.953    -279.040
  N      264.176     692.163    -281.745
  C      264.359     692.006    -280.388
  N      264.281     693.129    -279.638
  N      264.606     690.859    -279.812
  C      264.656     689.819    -280.688
  C      264.491     689.850    -282.054
  C      264.212     691.126    -282.672
  O      263.986     691.321    -283.866
  N      264.619     688.603    -282.601
  C      264.860     687.816    -281.569
  N      264.843     688.502    -280.382
  O      263.949     683.731    -282.841
  O      266.128     683.302    -281.575
  H      262.845     687.804    -276.531
  H      264.461     684.425    -283.289
  H      263.991     693.068    -282.144
  H      265.026     686.746    -281.628
  H      265.619     688.552    -278.462
  H      262.805     688.619    -278.746
  H      264.035     694.032    -280.011
  H      262.726     686.359    -279.622
  H      264.346     693.043    -278.633
  H      264.713     685.640    -277.394
  H      265.499     683.947    -279.038
  H      263.832     683.663    -278.507
  P      260.838     685.316    -278.183
  C      260.156     687.436    -279.524
  O      259.814     686.500    -278.520
  O      260.228     684.636    -276.865
  O      261.084     684.327    -279.271
  H      259.694     683.865    -277.105
  H      259.257     687.991    -279.797
  H      260.544     686.927    -280.414
  H      260.897     688.137    -279.142
  H      264.130     680.146    -280.098
  H      264.844     681.528    -279.302
  H      265.637     680.809    -280.684

 3  4  5  6  7  8  9  10  11  12  23  26  30  31 0
 6-311+G(2d,p)
 ****
 33  35  36  37  38 0
 6-311+G(2d,p)
 ****
 1  2  13  14  15  16  17  18  19  20  21  22  24  25 0
 3-21G
 ****
 27  28  29  32  34  39  40  41  42  43  44  45  46  47  48  49 0
 3-21G
 ****


