%nproc=1
%NoSave
%Mem=1900MB
#P OB98/GEN NMR

erre ene a

0 1
  C      506.821    -438.151    -542.327
  O      506.882    -439.359    -543.059
  H      507.837    -437.786    -542.162
  H      506.344    -438.331    -541.355
  H      506.257    -437.395    -542.884
  P      505.482    -439.973    -543.564
  C      505.999    -439.288    -546.050
  O      505.142    -439.198    -544.925
  C      505.449    -438.479    -547.218
  O      504.328    -439.193    -547.806
  C      504.955    -437.078    -546.823
  O      505.230    -436.176    -547.890
  C      503.447    -437.265    -546.707
  O      502.742    -436.033    -546.859
  C      503.187    -438.305    -547.803
  N      501.935    -439.044    -547.603
  C      501.216    -439.380    -548.755
  O      501.636    -439.060    -549.871
  N      500.020    -440.038    -548.623
  C      499.554    -440.279    -547.430
  N      498.344    -440.916    -547.362
  C      500.252    -439.905    -546.189
  C      501.430    -439.294    -546.351
  O      504.456    -439.350    -542.505
  O      505.459    -441.461    -543.656
  H      502.796    -435.539    -546.012
  H      504.608    -438.410    -542.327
  H      499.810    -440.113    -545.223
  H      502.020    -438.989    -545.494
  H      503.144    -437.830    -548.787
  H      503.187    -437.678    -545.724
  H      505.413    -436.721    -545.896
  H      506.224    -438.408    -547.996
  H      497.888    -441.134    -548.238
  H      506.114    -440.335    -546.356
  H      497.864    -441.099    -546.496
  H      506.986    -438.918    -545.751
  P      505.454    -434.617    -547.568
  C      508.009    -434.861    -547.240
  O      506.765    -434.440    -546.671
  O      504.246    -433.887    -547.085
  O      505.924    -434.035    -548.988
  H      505.481    -433.167    -549.114
  H      508.799    -434.688    -546.539
  H      508.198    -434.306    -548.135
  H      507.960    -435.904    -547.472

 6  7  8  9  10  11  12  13  14  15  16  26  30  31  32  33  35 0
 6-311+G(2d,p)
 ****
 37  38 0
 6-311+G(2d,p)
 ****
 1  2  3  4  5  17  18  19  20  21  22  23  24  25 0
 3-21G
 ****
 27  28  29  34  36  39  40  41  42  43  44  45  46 0
 3-21G
 ****


