%nproc=1
%NoSave
%Mem=1900MB
#P OB98/GEN NMR

erre ene a

0 1
  C      308.412    -203.281     115.888
  O      308.992    -204.573     115.918
  H      308.728    -202.740     116.782
  H      307.320    -203.356     115.883
  H      308.758    -202.742     115.004
  P      308.619    -205.553     114.699
  C      310.916    -205.349     113.540
  O      309.530    -205.029     113.478
  C      311.703    -204.493     112.541
  O      311.616    -203.108     112.955
  C      313.190    -204.867     112.463
  O      313.630    -204.754     111.104
  C      313.866    -203.794     113.303
  O      315.222    -203.587     112.927
  C      312.951    -202.590     113.073
  N      315.329    -198.393     114.741
  C      315.360    -199.033     113.554
  N      314.674    -200.143     113.178
  C      313.868    -200.559     114.188
  C      313.734    -200.000     115.439
  C      314.528    -198.871     115.718
  N      314.520    -198.218     116.936
  N      312.838    -200.736     116.201
  C      312.438    -201.707     115.404
  N      313.039    -201.642     114.173
  O      307.162    -205.694     114.397
  O      309.363    -206.906     115.128
  H      315.711    -204.427     113.069
  H      310.264    -206.723     115.460
  H      316.016    -198.607     112.803
  H      311.715    -202.474     115.664
  H      313.202    -202.041     112.149
  H      313.847    -204.096     114.358
  H      313.394    -205.870     112.833
  H      311.221    -204.567     111.554
  H      311.062    -206.410     113.310
  H      315.108    -197.407     117.042
  H      313.907    -198.556     117.667
  H      311.263    -205.162     114.558
  P      313.685    -206.077     110.219
  C      312.151    -205.035     108.424
  O      312.372    -206.143     109.289
  O      314.017    -207.346     110.939
  O      314.840    -205.731     109.146
  H      315.355    -206.547     108.970
  H      311.255    -205.195     107.862
  H      312.979    -204.935     107.754
  H      312.053    -204.142     109.006

 6  7  8  9  10  11  12  13  14  15  25  28  32  33  34  35 0
 6-311+G(2d,p)
 ****
 36  39  40 0
 6-311+G(2d,p)
 ****
 1  2  3  4  5  16  17  18  19  20  21  22  23  24 0
 3-21G
 ****
 26  27  29  30  31  37  38  41  42  43  44  45  46  47 0
 3-21G
 ****
 48 0
 3-21G
 ****


