%nproc=1
%NoSave
%Mem=1900MB
#P OB98/GEN NMR

erre ene a

0 1
  C      885.985    -288.138     431.765
  O      886.839    -287.744     432.845
  P      887.598    -288.812     433.773
  C      889.975    -287.928     433.260
  O      888.990    -288.182     434.260
  C      890.986    -286.867     433.718
  O      890.396    -285.553     433.691
  C      891.513    -287.053     435.134
  O      892.473    -288.105     435.184
  C      892.073    -285.665     435.420
  O      893.393    -285.506     434.855
  C      891.059    -284.760     434.680
  N      890.093    -284.142     435.598
  C      890.636    -283.425     436.670
  O      891.854    -283.365     436.834
  N      889.764    -282.794     437.537
  C      888.485    -282.940     437.398
  N      887.675    -282.290     438.278
  C      887.890    -283.780     436.339
  C      888.747    -284.340     435.481
  O      887.727    -290.170     433.175
  O      886.730    -288.870     435.126
  H      893.907    -286.281     435.169
  H      886.798    -289.761     435.512
  H      886.806    -283.900     436.264
  H      888.374    -284.976     434.673
  H      891.575    -283.958     434.139
  H      892.155    -285.456     436.495
  H      890.695    -287.257     435.814
  H      891.819    -286.874     432.990
  H      888.123    -281.721     438.986
  H      889.452    -287.575     432.358
  H      886.676    -282.338     438.249
  H      890.491    -288.869     433.028
  P      892.944    -288.670     436.607
  C      892.438    -291.096     435.978
  O      893.432    -290.177     436.391
  O      892.013    -288.448     437.754
  O      894.337    -287.888     436.866
  H      894.448    -287.763     437.825
  H      892.932    -291.953     435.496
  H      891.732    -290.638     435.272
  H      891.892    -291.463     436.862
  H      885.589    -287.266     431.287
  H      885.181    -288.733     432.145
  H      886.547    -288.709     431.056

 3  4  5  6  7  8  9  10  11  12  13  23  27  28  29  30  32 0
 6-311+G(2d,p)
 ****
 34  35 0
 6-311+G(2d,p)
 ****
 1  2  14  15  16  17  18  19  20  21  22  24  25  26 0
 3-21G
 ****
 31  33  36  37  38  39  40  41  42  43  44  45  46 0
 3-21G
 ****


