%nproc=1
%NoSave
%Mem=1900MB
#P OB98/GEN NMR

erre ene a

0 1
  C      475.258     340.729     563.075
  O      476.644     340.536     562.879
  H      474.724     340.351     562.197
  H      475.034     341.793     563.194
  H      474.923     340.176     563.957
  P      477.614     341.060     564.047
  C      476.951     339.094     565.577
  O      478.004     339.732     564.863
  C      477.518     338.255     566.721
  O      476.456     338.000     567.675
  C      478.069     336.900     566.273
  O      479.242     336.592     567.029
  C      476.964     335.923     566.631
  O      477.449     334.603     566.836
  C      476.365     336.581     567.878
  N      473.323     333.238     570.245
  C      474.645     333.475     570.339
  N      475.379     334.403     569.679
  C      474.588     335.154     568.889
  C      473.229     335.026     568.688
  C      472.582     334.004     569.404
  N      471.243     333.737     569.297
  N      472.787     335.954     567.765
  C      473.861     336.645     567.427
  N      474.979     336.180     568.073
  O      477.082     342.186     564.871
  O      478.956     341.376     563.236
  H      477.815     334.273     565.987
  H      479.165     340.669     562.597
  H      475.194     332.840     571.028
  H      473.885     337.461     566.720
  H      476.911     336.319     568.790
  H      476.225     335.891     565.819
  H      478.304     336.878     565.207
  H      478.277     338.844     567.251
  H      476.375     338.453     564.903
  H      470.853     332.995     569.858
  H      470.662     334.310     568.694
  H      476.287     339.876     565.967
  P      480.673     336.821     566.347
  C      481.335     339.218     567.057
  O      481.528     337.821     567.269
  O      480.659     337.148     564.891
  O      481.405     335.416     566.607
  H      481.950     335.196     565.822
  H      481.958     339.770     567.729
  H      480.310     339.467     567.235
  H      481.592     339.465     566.048

 6  7  8  9  10  11  12  13  14  15  25  28  32  33  34  35 0
 6-311+G(2d,p)
 ****
 36  39  40 0
 6-311+G(2d,p)
 ****
 1  2  3  4  5  16  17  18  19  20  21  22  23  24 0
 3-21G
 ****
 26  27  29  30  31  37  38  41  42  43  44  45  46  47 0
 3-21G
 ****
 48 0
 3-21G
 ****


