%nproc=1
%NoSave
%Mem=1900MB
#P OB98/GEN NMR

erre ene a

0 1
  C       59.776     -31.007       4.775
  O       58.403     -30.742       4.571
  H       59.989     -30.953       5.845
  H       60.376     -30.255       4.258
  H       60.037     -32.006       4.414
  P       57.805     -31.091       3.123
  C       57.921     -28.563       2.549
  O       58.235     -29.888       2.150
  C       58.434     -27.564       1.517
  O       59.838     -27.782       1.261
  C       57.734     -27.642       0.164
  O       56.517     -26.908       0.163
  C       58.770     -26.981      -0.728
  O       58.719     -25.548      -0.554
  C       60.083     -27.530      -0.152
  N       62.390     -29.536      -4.197
  C       62.025     -28.228      -3.944
  N       62.308     -27.328      -4.910
  N       61.432     -27.836      -2.847
  C       61.190     -28.848      -1.980
  C       61.497     -30.182      -2.121
  C       62.167     -30.598      -3.331
  O       62.521     -31.744      -3.599
  N       61.095     -30.910      -1.033
  C       60.525     -30.021      -0.244
  N       60.553     -28.755      -0.775
  O       56.231     -30.870       3.329
  O       58.099     -32.466       2.628
  H       59.398     -25.165      -1.138
  H       55.801     -31.741       3.426
  H       62.836     -29.785      -5.063
  H       60.085     -30.239       0.719
  H       60.902     -26.805      -0.219
  H       58.601     -27.177      -1.788
  H       62.743     -27.565      -5.788
  H       57.582     -28.680      -0.155
  H       62.053     -26.363      -4.744
  H       58.334     -26.558       1.946
  H       58.390     -28.361       3.518
  H       56.834     -28.470       2.650
  P       55.184     -27.650      -0.334
  C       55.815     -26.950      -2.750
  O       55.394     -27.998      -1.889
  O       54.111     -26.463      -0.358
  O       54.728     -28.780       0.522
  H       53.445     -26.603       0.343
  H       55.912     -27.325      -3.747
  H       56.759     -26.573      -2.417
  H       55.091     -26.163      -2.734

 6  7  8  9  10  11  12  13  14  15  26  29  33  34 0
 6-311+G(2d,p)
 ****
 36  38  39  40  41 0
 6-311+G(2d,p)
 ****
 1  2  3  4  5  16  17  18  19  20  21  22  23  24  25 0
 3-21G
 ****
 27  28  30  31  32  35  37  42  43  44  45  46  47 0
 3-21G
 ****
 48  49 0
 3-21G
 ****


