%nproc=1
%NoSave
%Mem=1900MB
#P OB98/GEN NMR

erre ene a

0 1
  C     -537.869    -560.454      27.161
  O     -537.197    -561.681      27.407
  P     -537.130    -562.224      28.911
  C     -538.766    -564.201      28.468
  O     -538.493    -563.015      29.214
  C     -539.154    -565.351      29.418
  O     -540.187    -564.893      30.331
  C     -539.701    -566.594      28.679
  O     -539.309    -567.769      29.398
  C     -541.210    -566.443      28.818
  O     -541.868    -567.693      28.689
  C     -541.313    -565.802      30.205
  N     -546.092    -566.286      31.799
  C     -545.018    -567.133      31.984
  N     -545.270    -568.302      32.605
  N     -543.801    -566.858      31.592
  C     -543.686    -565.646      30.990
  C     -544.674    -564.711      30.744
  C     -546.031    -565.039      31.158
  O     -547.031    -564.343      31.004
  N     -544.182    -563.607      30.133
  C     -542.905    -563.861      29.946
  N     -542.554    -565.112      30.410
  O     -537.265    -560.896      29.787
  O     -535.872    -562.966      29.245
  H     -541.510    -568.293      29.364
  H     -536.384    -560.656      30.167
  H     -547.007    -566.557      32.096
  H     -542.182    -563.195      29.476
  H     -541.203    -566.561      30.999
  H     -541.588    -565.766      28.048
  H     -546.204    -568.619      32.859
  H     -539.383    -566.663      27.632
  H     -544.513    -568.968      32.724
  H     -538.280    -565.604      30.018
  H     -537.869    -564.489      27.913
  H     -539.576    -564.008      27.750
  P     -539.392    -569.139      28.580
  C     -536.850    -569.522      28.115
  O     -538.125    -569.160      27.601
  O     -540.622    -568.907      27.587
  O     -539.560    -570.362      29.433
  H     -541.030    -569.770      27.326
  H     -536.518    -570.420      27.615
  H     -536.888    -569.699      29.187
  H     -536.137    -568.712      27.918
  H     -537.828    -560.228      26.116
  H     -537.395    -559.670      27.714
  H     -538.891    -560.539      27.467

 3  4  5  6  7  8  9  10  11  12  23  26  30  31 0
 6-311+G(2d,p)
 ****
 33  35  36  37  38 0
 6-311+G(2d,p)
 ****
 1  2  13  14  15  16  17  18  19  20  21  22  24  25 0
 3-21G
 ****
 27  28  29  32  34  39  40  41  42  43  44  45  46  47  48  49 0
 3-21G
 ****


