%nproc=1
%NoSave
%Mem=1900MB
#P OB98/GEN NMR

erre ene a

0 1
  C     -384.564    -893.950      -6.434
  O     -383.468    -894.160      -7.307
  P     -383.087    -893.020      -8.355
  C     -380.815    -894.280      -8.507
  O     -381.833    -893.580      -9.205
  C     -379.986    -895.120      -9.482
  O     -379.454    -894.290     -10.526
  C     -378.775    -895.780      -8.840
  O     -379.121    -896.990      -8.155
  C     -377.947    -896.100     -10.068
  O     -378.427    -897.300     -10.717
  C     -378.181    -894.870     -10.950
  N     -373.774    -893.290     -12.891
  C     -374.685    -894.210     -13.363
  N     -374.316    -894.870     -14.506
  N     -375.815    -894.500     -12.814
  C     -376.050    -893.780     -11.684
  C     -375.226    -892.830     -11.076
  C     -373.963    -892.540     -11.715
  O     -373.101    -891.770     -11.295
  N     -375.795    -892.310      -9.943
  C     -376.950    -892.940      -9.836
  N     -377.131    -893.870     -10.831
  O     -382.444    -891.880      -7.452
  O     -384.235    -892.520      -9.181
  H     -378.512    -897.980     -10.034
  H     -382.424    -891.030      -7.937
  H     -372.902    -893.120     -13.362
  H     -377.671    -892.780      -9.056
  H     -378.284    -895.140     -12.022
  H     -376.886    -896.280      -9.845
  H     -373.417    -894.750     -14.956
  H     -378.225    -895.100      -8.199
  H     -374.940    -895.600     -14.869
  H     -380.647    -895.860      -9.939
  H     -381.268    -894.930      -7.758
  H     -380.166    -893.550      -7.981
  P     -378.570    -897.170      -6.652
  C     -380.445    -898.960      -6.661
  O     -379.226    -898.510      -6.100
  O     -379.326    -896.000      -5.856
  O     -377.080    -897.060      -6.548
  H     -378.803    -895.710      -5.084
  H     -380.613    -900.000      -6.387
  H     -380.407    -898.890      -7.772
  H     -381.283    -898.350      -6.293
  H     -384.684    -894.804      -5.800
  H     -385.455    -893.804      -7.009
  H     -384.381    -893.083      -5.834

 3  4  5  6  7  8  9  10  11  12  23  26  30  31 0
 6-311+G(2d,p)
 ****
 33  35  36  37  38 0
 6-311+G(2d,p)
 ****
 1  2  13  14  15  16  17  18  19  20  21  22  24  25 0
 3-21G
 ****
 27  28  29  32  34  39  40  41  42  43  44  45  46  47  48  49 0
 3-21G
 ****


