%nproc=1
%NoSave
%Mem=1900MB
#P OB98/GEN NMR

erre ene a

0 1
  C       95.438     212.656     610.303
  O       94.556     211.698     610.841
  H       95.448     212.551     609.212
  H       96.454     212.511     610.677
  H       95.091     213.672     610.547
  P       94.407     211.602     612.439
  C       92.775     213.609     612.391
  O       93.961     213.054     612.955
  C       91.907     214.214     613.491
  O       92.634     215.352     614.061
  C       90.555     214.730     612.961
  O       89.433     214.221     613.678
  C       90.737     216.249     612.938
  O       89.542     216.996     613.054
  C       91.749     216.504     614.062
  N       92.529     217.729     613.912
  C       91.876     218.931     614.216
  O       90.726     219.025     614.619
  N       92.640     220.050     614.031
  C       93.936     220.113     613.593
  O       94.554     221.155     613.470
  C       94.540     218.816     613.271
  C       93.833     217.703     613.443
  O       95.570     211.005     613.159
  O       93.076     210.730     612.650
  H       88.893     216.593     612.427
  H       93.324     209.812     612.894
  H       92.183     220.935     614.273
  H       95.565     218.825     612.910
  H       94.251     216.724     613.210
  H       91.254     216.528     615.039
  H       91.209     216.520     611.974
  H       90.378     214.381     611.935
  H       91.761     213.474     614.290
  H       92.235     212.802     611.881
  H       93.042     214.382     611.660
  P       88.003     213.898     613.035
  C       87.793     211.358     613.698
  O       87.959     212.336     612.669
  O       87.538     214.849     611.978
  O       86.998     214.012     614.282
  H       86.143     214.349     613.921
  H       87.788     210.380     613.263
  H       86.866     211.528     614.205
  H       88.600     211.434     614.396

 6  7  8  9  10  11  12  13  14  15  16  26  31  32  33  34  35 0
 6-311+G(2d,p)
 ****
 36  37 0
 6-311+G(2d,p)
 ****
 1  2  3  4  5  17  18  19  20  21  22  23  24  25 0
 3-21G
 ****
 27  28  29  30  38  39  40  41  42  43  44  45 0
 3-21G
 ****


