%nproc=1
%NoSave
%Mem=1900MB
#P OB98/GEN NMR

erre ene a

0 1
  C       47.577    -173.741      32.138
  O       47.080    -172.814      31.183
  P       45.490    -172.723      30.983
  C       45.520    -174.397      28.984
  O       45.197    -173.097      29.449
  C       44.776    -174.702      27.681
  O       45.237    -175.983      27.174
  C       43.251    -174.793      27.818
  O       42.693    -174.329      26.584
  C       43.007    -176.285      27.961
  O       41.675    -176.657      27.622
  C       44.079    -176.835      27.026
  N       43.019    -181.704      26.156
  C       42.373    -180.564      25.713
  N       41.333    -180.756      24.869
  N       42.715    -179.352      26.058
  C       43.782    -179.321      26.894
  C       44.479    -180.377      27.433
  C       44.116    -181.710      27.011
  O       44.711    -182.740      27.309
  N       45.442    -179.950      28.306
  C       45.380    -178.635      28.237
  N       44.421    -178.206      27.356
  O       45.211    -171.152      31.050
  O       44.667    -173.498      31.965
  H       41.649    -177.632      27.535
  H       44.967    -170.876      31.957
  H       42.722    -182.611      25.839
  H       46.003    -177.947      28.786
  H       43.774    -176.814      25.973
  H       43.190    -176.593      28.998
  H       41.035    -181.658      24.537
  H       42.852    -174.217      28.659
  H       40.860    -179.934      24.503
  H       45.050    -173.943      26.943
  H       45.215    -175.130      29.739
  H       46.604    -174.477      28.841
  P       41.845    -172.966      26.608
  C       39.606    -174.159      26.083
  O       40.555    -173.186      25.691
  O       42.750    -171.971      25.736
  O       41.598    -172.408      27.971
  H       42.647    -171.059      26.068
  H       38.642    -173.920      25.623
  H       39.479    -174.185      27.171
  H       39.928    -175.145      25.734
  H       48.646    -173.691      32.162
  H       47.273    -174.730      31.867
  H       47.187    -173.500      33.105

 3  4  5  6  7  8  9  10  11  12  23  26  30  31 0
 6-311+G(2d,p)
 ****
 33  35  36  37  38 0
 6-311+G(2d,p)
 ****
 1  2  13  14  15  16  17  18  19  20  21  22  24  25 0
 3-21G
 ****
 27  28  29  32  34  39  40  41  42  43  44  45  46  47  48  49 0
 3-21G
 ****


