%nproc=1
%NoSave
%Mem=1900MB
#P OB98/GEN NMR

erre ene a

0 1
  C      -89.091    -517.022    -512.926
  O      -89.361    -517.684    -511.707
  P      -89.412    -519.284    -511.631
  C      -86.947    -519.675    -511.042
  O      -87.961    -519.848    -512.022
  C      -86.244    -520.993    -510.739
  O      -87.226    -521.978    -510.321
  C      -85.462    -521.580    -511.922
  O      -84.264    -522.163    -511.393
  C      -86.391    -522.656    -512.447
  O      -85.705    -523.644    -513.196
  C      -87.026    -523.146    -511.137
  N      -88.273    -523.858    -511.358
  C      -88.181    -525.179    -511.793
  O      -87.085    -525.659    -512.098
  N      -89.332    -525.923    -511.885
  C      -90.483    -525.338    -511.744
  N      -91.588    -526.123    -511.777
  C      -90.626    -523.887    -511.530
  C      -89.492    -523.220    -511.306
  O      -90.544    -519.914    -512.368
  O      -89.505    -519.592    -510.063
  H      -90.273    -520.182    -509.898
  H      -84.873    -523.879    -512.726
  H      -91.600    -523.425    -511.543
  H      -89.497    -522.152    -511.115
  H      -86.333    -523.809    -510.599
  H      -87.147    -522.201    -513.094
  H      -85.196    -520.827    -512.667
  H      -85.567    -520.832    -509.884
  H      -91.457    -527.119    -511.882
  H      -87.414    -519.297    -510.132
  H      -92.478    -525.825    -511.367
  H      -86.224    -518.921    -511.385
  P      -82.884    -521.899    -512.169
  C      -81.684    -520.686    -510.212
  O      -82.194    -520.605    -511.526
  O      -83.410    -521.337    -513.580
  O      -82.012    -523.088    -512.398
  H      -82.736    -521.510    -514.264
  H      -81.321    -519.701    -509.921
  H      -80.859    -521.393    -510.166
  H      -82.476    -520.985    -509.520
  H      -89.101    -515.964    -512.767
  H      -89.839    -517.282    -513.646
  H      -88.129    -517.319    -513.288

 3  4  5  6  7  8  9  10  11  12  13  24  27  28  29  30  32 0
 6-311+G(2d,p)
 ****
 34  35 0
 6-311+G(2d,p)
 ****
 1  2  14  15  16  17  18  19  20  21  22  23  25  26 0
 3-21G
 ****
 31  33  36  37  38  39  40  41  42  43  44  45  46 0
 3-21G
 ****


