%nproc=1
%NoSave
%Mem=1900MB
#P OB98/GEN NMR

erre ene a

0 1
  C     -875.811    -691.569    1356.543
  O     -874.755    -691.707    1355.597
  P     -874.596    -690.887    1354.238
  C     -875.110    -692.807    1352.478
  O     -874.185    -691.903    1353.072
  C     -874.513    -694.205    1352.300
  O     -873.405    -694.148    1351.370
  C     -873.952    -694.783    1353.612
  O     -874.248    -696.148    1353.830
  C     -872.470    -694.402    1353.572
  O     -871.653    -695.153    1354.405
  C     -872.205    -694.513    1352.057
  N     -867.470    -694.368    1350.087
  C     -868.214    -695.452    1350.505
  N     -867.608    -696.673    1350.401
  N     -869.428    -695.367    1351.000
  C     -869.848    -694.087    1351.119
  C     -869.215    -692.944    1350.742
  C     -867.909    -693.047    1350.145
  O     -867.197    -692.122    1349.758
  N     -869.998    -691.827    1350.999
  C     -871.089    -692.308    1351.532
  N     -871.052    -693.706    1351.626
  O     -873.834    -689.625    1354.326
  O     -876.127    -690.525    1353.829
  H     -871.783    -694.817    1355.347
  H     -876.076    -689.663    1353.370
  H     -866.559    -694.478    1349.686
  H     -871.939    -691.732    1351.874
  H     -871.928    -695.527    1351.763
  H     -872.385    -693.334    1353.882
  H     -866.630    -696.801    1350.157
  H     -874.412    -694.285    1354.500
  H     -868.071    -697.427    1350.935
  H     -875.305    -694.866    1351.882
  H     -875.348    -692.369    1351.494
  H     -876.035    -692.832    1353.074
  P     -875.378    -696.813    1354.765
  C     -873.799    -698.132    1356.310
  O     -874.880    -698.203    1355.311
  O     -876.570    -697.247    1353.733
  O     -875.942    -695.872    1355.822
  H     -877.378    -696.737    1353.940
  H     -873.363    -699.142    1356.400
  H     -874.248    -697.825    1357.264
  H     -873.040    -697.421    1355.998
  H     -875.654    -692.248    1357.355
  H     -876.745    -691.789    1356.070
  H     -875.828    -690.566    1356.915

 3  4  5  6  7  8  9  10  11  12  23  26  30  31 0
 6-311+G(2d,p)
 ****
 33  35  36  37  38 0
 6-311+G(2d,p)
 ****
 1  2  13  14  15  16  17  18  19  20  21  22  24  25 0
 3-21G
 ****
 27  28  29  32  34  39  40  41  42  43  44  45  46  47  48  49 0
 3-21G
 ****


