%nproc=1
%NoSave
%Mem=1900MB
#P OB98/GEN NMR

erre ene a

0 1
  C       85.230       6.661    -345.869
  O       85.956       7.017    -347.038
  P       85.918       8.556    -347.497
  C       86.668       7.896    -349.896
  O       85.683       8.526    -349.084
  C       86.109       7.602    -351.285
  O       85.128       6.551    -351.216
  C       85.407       8.779    -351.945
  O       86.320       9.678    -352.558
  C       84.579       8.066    -353.001
  O       85.406       7.727    -354.127
  C       84.148       6.794    -352.261
  N       79.279       5.265    -352.607
  C       80.349       5.043    -353.396
  N       81.612       5.494    -353.243
  C       81.707       6.283    -352.158
  C       80.692       6.634    -351.281
  C       79.427       6.074    -351.527
  N       78.342       6.282    -350.706
  N       81.169       7.463    -350.290
  C       82.450       7.605    -350.559
  N       82.825       6.904    -351.670
  O       87.446       9.010    -347.360
  O       85.000       9.426    -346.712
  H       84.879       7.138    -354.700
  H       87.500       9.980    -347.257
  H       80.171       4.414    -354.263
  H       83.144       8.196    -349.973
  H       84.143       5.915    -352.914
  H       83.756       8.678    -353.381
  H       84.739       9.293    -351.240
  H       86.939       7.247    -351.914
  H       86.966       6.954    -349.427
  H       77.530       5.708    -350.846
  H       78.504       6.715    -349.803
  H       87.545       8.548    -349.964
  P       86.415      11.155    -351.932
  C       87.982      12.098    -353.774
  O       86.702      12.120    -353.174
  O       87.803      11.121    -351.135
  O       85.265      11.519    -351.055
  H       87.794      11.770    -350.410
  H       87.913      12.562    -354.766
  H       88.346      11.073    -353.897
  H       88.689      12.667    -353.166
  H       85.344       5.613    -345.684
  H       84.194       6.888    -346.010
  H       85.606       7.214    -345.034

 3  4  5  6  7  8  9  10  11  12  22  25  29  30  31  32 0
 6-311+G(2d,p)
 ****
 33  36  37 0
 6-311+G(2d,p)
 ****
 1  2  13  14  15  16  17  18  19  20  21  23  24  26 0
 3-21G
 ****
 27  28  34  35  38  39  40  41  42  43  44  45  46  47  48 0
 3-21G
 ****


