%nproc=1
%NoSave
%Mem=1900MB
#P OB98/GEN NMR

erre ene a

0 1
  C       74.932     -46.461      19.158
  O       75.970     -46.018      18.306
  H       75.077     -46.022      20.148
  H       74.958     -47.551      19.248
  H       73.961     -46.142      18.769
  P       75.948     -46.576      16.802
  C       77.581     -48.582      16.991
  O       76.230     -48.154      16.908
  C       77.648     -50.088      17.224
  O       76.944     -50.450      18.433
  C       77.046     -50.926      16.102
  O       77.971     -51.104      15.043
  C       76.736     -52.224      16.836
  O       77.911     -53.049      16.969
  C       76.267     -51.715      18.206
  N       71.911     -54.016      19.304
  C       73.206     -54.486      19.362
  N       73.358     -55.782      19.715
  N       74.257     -53.760      19.088
  C       73.948     -52.495      18.719
  C       72.708     -51.905      18.638
  C       71.556     -52.714      18.974
  O       70.388     -52.338      19.006
  N       72.805     -50.597      18.244
  C       74.095     -50.406      18.048
  N       74.829     -51.534      18.307
  O       77.305     -46.004      16.171
  O       74.759     -46.186      15.992
  H       77.789     -53.661      17.714
  H       77.175     -45.856      15.216
  H       71.144     -54.619      19.543
  H       74.543     -49.478      17.722
  H       76.559     -52.390      19.018
  H       75.995     -52.821      16.302
  H       72.609     -56.452      19.609
  H       76.112     -50.480      15.742
  H       74.303     -56.141      19.738
  H       78.704     -50.350      17.374
  H       78.067     -48.067      17.826
  H       78.098     -48.322      16.061
  P       77.468     -50.777      13.553
  C       77.052     -53.247      12.851
  O       76.486     -51.974      13.134
  O       78.769     -51.040      12.659
  O       76.926     -49.401      13.367
  H       78.664     -50.618      11.785
  H       76.274     -53.933      12.589
  H       77.569     -53.607      13.716
  H       77.739     -53.159      12.035

 6  7  8  9  10  11  12  13  14  15  26  29  33  34 0
 6-311+G(2d,p)
 ****
 36  38  39  40  41 0
 6-311+G(2d,p)
 ****
 1  2  3  4  5  16  17  18  19  20  21  22  23  24  25 0
 3-21G
 ****
 27  28  30  31  32  35  37  42  43  44  45  46  47 0
 3-21G
 ****
 48  49 0
 3-21G
 ****


