%nproc=1
%NoSave
%Mem=1900MB
#P OB98/GEN NMR

erre ene a

0 1
  C     -169.433     128.860    -245.290
  O     -168.543     128.199    -244.416
  P     -169.068     127.207    -243.268
  C     -168.461     128.845    -241.380
  O     -168.215     127.569    -241.959
  C     -167.249     129.763    -241.528
  O     -166.067     129.103    -241.000
  C     -166.940     130.192    -242.971
  O     -166.412     131.520    -242.897
  C     -165.849     129.214    -243.366
  O     -165.092     129.663    -244.484
  C     -165.076     129.089    -242.049
  N     -164.246     127.887    -242.009
  C     -163.003     127.957    -242.646
  O     -162.686     128.972    -243.266
  N     -162.180     126.865    -242.611
  C     -162.600     125.761    -242.071
  N     -161.742     124.708    -242.059
  C     -163.954     125.605    -241.502
  C     -164.708     126.698    -241.489
  O     -169.075     125.765    -243.637
  O     -170.516     127.777    -242.910
  H     -165.712     129.994    -245.173
  H     -171.172     127.514    -243.606
  H     -164.280     124.649    -241.117
  H     -165.718     126.680    -241.091
  H     -164.424     129.966    -241.894
  H     -166.293     128.250    -243.636
  H     -167.802     130.154    -243.633
  H     -167.422     130.660    -240.904
  H     -160.816     124.861    -242.443
  H     -168.671     128.699    -240.319
  H     -161.937     123.835    -241.594
  H     -169.351     129.298    -241.838
  P     -166.572     132.548    -244.121
  C     -164.439     131.615    -245.182
  O     -165.110     132.780    -244.731
  O     -167.319     133.805    -243.799
  O     -167.313     131.700    -245.255
  H     -167.672     132.301    -245.934
  H     -163.596     131.907    -245.825
  H     -165.106     130.973    -245.766
  H     -164.054     131.059    -244.326
  H     -168.877     129.468    -245.973
  H     -170.097     129.478    -244.722
  H     -169.999     128.136    -245.837

 3  4  5  6  7  8  9  10  11  12  13  23  27  28  29  30  32 0
 6-311+G(2d,p)
 ****
 34  35 0
 6-311+G(2d,p)
 ****
 1  2  14  15  16  17  18  19  20  21  22  24  25  26 0
 3-21G
 ****
 31  33  36  37  38  39  40  41  42  43  44  45  46 0
 3-21G
 ****


