%nproc=1
%NoSave
%Mem=1900MB
#P OB98/GEN NMR

erre ene a

0 1
  C       91.288     356.426     374.501
  O       91.022     355.252     375.238
  H       92.334     356.411     374.182
  H       91.128     357.304     375.130
  H       90.655     356.487     373.610
  P       89.501     354.876     375.576
  C       88.421     352.536     375.701
  O       89.512     353.356     376.095
  C       88.618     351.096     376.191
  O       89.893     350.602     375.691
  C       88.635     350.955     377.720
  O       88.104     349.660     378.034
  C       90.120     351.004     378.018
  O       90.406     350.497     379.301
  C       90.675     350.201     376.838
  N       92.104     350.419     376.630
  C       92.963     349.454     377.150
  O       92.567     348.472     377.780
  N       94.296     349.675     376.962
  C       94.851     350.774     376.369
  O       96.058     350.932     376.258
  C       93.897     351.782     375.882
  C       92.587     351.564     376.027
  O       88.509     355.161     374.497
  O       89.179     355.695     376.916
  H       91.342     350.669     379.536
  H       88.230     355.928     376.947
  H       94.932     348.977     377.320
  H       94.304     352.674     375.418
  H       91.864     352.292     375.680
  H       90.517     349.120     376.988
  H       90.485     352.033     377.986
  H       88.067     351.734     378.232
  H       87.835     350.466     375.743
  H       88.368     352.549     374.605
  H       87.493     352.946     376.109
  P       86.633     349.467     378.657
  C       84.847     347.611     378.761
  O       86.227     347.918     378.552
  O       85.609     350.408     378.106
  O       86.822     349.695     380.228
  H       85.989     350.034     380.618
  H       84.698     346.556     378.667
  H       84.254     348.121     378.031
  H       84.556     347.926     379.741

 6  7  8  9  10  11  12  13  14  15  16  26  31  32  33  34  35 0
 6-311+G(2d,p)
 ****
 36  37 0
 6-311+G(2d,p)
 ****
 1  2  3  4  5  17  18  19  20  21  22  23  24  25 0
 3-21G
 ****
 27  28  29  30  38  39  40  41  42  43  44  45 0
 3-21G
 ****


