%nproc=1
%NoSave
%Mem=1900MB
#P OB98/GEN NMR

erre ene a

0 1
  C      720.117    -701.564    1559.964
  O      719.070    -702.187    1559.245
  H      719.738    -701.229    1560.928
  H      720.499    -700.698    1559.416
  H      720.937    -702.283    1560.137
  P      719.424    -702.721    1557.774
  C      720.534    -701.622    1555.708
  O      720.240    -701.514    1557.092
  C      720.196    -700.310    1555.000
  O      720.729    -699.189    1555.735
  C      720.791    -700.198    1553.592
  O      719.940    -700.837    1552.642
  C      720.776    -698.682    1553.394
  O      719.457    -698.255    1553.009
  C      721.128    -698.158    1554.803
  N      724.405    -694.434    1556.110
  C      723.082    -694.398    1555.802
  N      722.284    -695.429    1555.411
  C      722.981    -696.570    1555.355
  C      724.336    -696.744    1555.634
  C      725.049    -695.615    1556.041
  N      726.401    -695.652    1556.339
  N      724.698    -698.072    1555.459
  C      723.571    -698.680    1555.134
  N      722.509    -697.819    1555.037
  O      718.277    -703.274    1556.994
  O      720.595    -703.783    1558.107
  H      719.512    -697.282    1552.857
  H      721.186    -703.431    1558.796
  H      722.609    -693.422    1555.893
  H      723.467    -699.770    1555.007
  H      720.526    -697.257    1555.046
  H      721.462    -698.357    1552.604
  H      721.818    -700.552    1553.550
  H      719.108    -700.195    1554.957
  H      719.956    -702.438    1555.265
  H      726.881    -694.770    1556.423
  H      726.903    -696.506    1556.162
  H      721.593    -701.862    1555.608
  P      720.515    -701.360    1551.234
  C      722.199    -700.408    1549.546
  O      721.336    -700.114    1550.635
  O      719.486    -701.951    1550.331
  O      721.671    -702.398    1551.643
  H      721.907    -702.956    1550.877
  H      722.691    -699.512    1549.229
  H      721.626    -700.806    1548.735
  H      722.929    -701.127    1549.854

 6  7  8  9  10  11  12  13  14  15  25  28  32  33  34  35 0
 6-311+G(2d,p)
 ****
 36  39  40 0
 6-311+G(2d,p)
 ****
 1  2  3  4  5  16  17  18  19  20  21  22  23  24 0
 3-21G
 ****
 26  27  29  30  31  37  38  41  42  43  44  45  46  47 0
 3-21G
 ****
 48 0
 3-21G
 ****


