%nproc=1
%NoSave
%Mem=1900MB
#P OB98/GEN NMR

erre ene a

0 1
  C     -407.342    -469.605     743.371
  O     -406.565    -470.520     744.120
  P     -406.890    -472.081     744.198
  C     -404.519    -472.604     743.263
  O     -405.494    -472.879     744.261
  C     -403.081    -472.737     743.775
  O     -402.765    -471.622     744.641
  C     -402.937    -473.996     744.636
  O     -402.710    -475.247     744.019
  C     -401.932    -473.625     745.724
  O     -400.615    -474.075     745.429
  C     -401.987    -472.099     745.744
  N     -401.272    -471.372     750.716
  C     -400.355    -471.725     749.742
  N     -399.143    -472.104     750.197
  N     -400.606    -471.716     748.459
  C     -401.903    -471.400     748.176
  C     -402.898    -471.019     749.041
  C     -402.583    -471.001     750.454
  O     -403.399    -470.773     751.353
  N     -404.096    -470.845     748.407
  C     -403.844    -471.163     747.149
  N     -402.526    -471.529     746.968
  O     -407.960    -472.587     743.285
  O     -407.435    -472.221     745.706
  H     -400.044    -473.877     746.184
  H     -408.124    -472.913     745.713
  H     -401.035    -471.480     751.691
  H     -404.563    -471.161     746.347
  H     -400.983    -471.676     745.616
  H     -402.209    -474.081     746.679
  H     -398.954    -472.262     751.182
  H     -403.894    -474.127     745.163
  H     -398.506    -472.525     749.525
  H     -402.359    -472.675     742.954
  H     -404.708    -471.587     742.897
  H     -404.659    -473.276     742.423
  P     -402.759    -476.677     744.732
  C     -405.288    -476.866     745.130
  O     -404.169    -477.361     744.408
  O     -402.885    -476.331     746.299
  O     -401.560    -477.554     744.494
  H     -402.573    -477.092     746.833
  H     -406.100    -477.577     745.062
  H     -405.604    -475.900     744.696
  H     -405.029    -476.714     746.188
  H     -406.931    -468.622     743.472
  H     -408.348    -469.610     743.735
  H     -407.334    -469.891     742.340

 3  4  5  6  7  8  9  10  11  12  23  26  30  31 0
 6-311+G(2d,p)
 ****
 33  35  36  37  38 0
 6-311+G(2d,p)
 ****
 1  2  13  14  15  16  17  18  19  20  21  22  24  25 0
 3-21G
 ****
 27  28  29  32  34  39  40  41  42  43  44  45  46  47  48  49 0
 3-21G
 ****


