%nproc=1
%NoSave
%Mem=1900MB
#P OB98/GEN NMR

erre ene a

0 1
  C      481.897     177.570    -240.357
  O      480.848     178.499    -240.238
  H      482.593     177.922    -241.127
  H      481.498     176.596    -240.657
  H      482.450     177.465    -239.412
  P      479.893     178.425    -238.949
  C      478.032     177.073    -240.135
  O      478.382     178.283    -239.490
  C      477.212     177.331    -241.404
  O      476.028     178.087    -241.057
  C      478.014     178.184    -242.393
  O      477.637     177.932    -243.751
  C      477.604     179.607    -242.028
  O      477.823     180.547    -243.081
  C      476.141     179.397    -241.650
  N      475.589     184.355    -240.602
  C      476.299     183.754    -241.615
  N      476.973     184.582    -242.448
  N      476.358     182.463    -241.788
  C      475.706     181.762    -240.824
  C      474.991     182.234    -239.763
  C      474.897     183.674    -239.602
  O      474.294     184.271    -238.708
  N      474.484     181.221    -238.990
  C      474.891     180.125    -239.592
  N      475.636     180.395    -240.727
  O      479.919     179.924    -238.375
  O      480.284     177.426    -237.906
  H      477.486     180.154    -243.889
  H      479.707     179.922    -237.419
  H      475.556     185.362    -240.523
  H      474.682     179.113    -239.266
  H      475.509     179.434    -242.542
  H      478.229     179.926    -241.184
  H      477.098     185.575    -242.255
  H      479.089     178.034    -242.283
  H      477.717     184.165    -243.014
  H      476.870     176.389    -241.837
  H      477.451     176.481    -239.419
  H      478.937     176.502    -240.374
  P      478.728     177.241    -244.713
  C      478.352     179.248    -246.353
  O      478.541     177.854    -246.168
  O      478.202     175.730    -244.833
  O      480.124     177.298    -244.174
  H      478.764     175.135    -244.297
  H      478.247     179.458    -247.397
  H      479.198     179.777    -245.966
  H      477.469     179.560    -245.835

 6  7  8  9  10  11  12  13  14  15  26  29  33  34 0
 6-311+G(2d,p)
 ****
 36  38  39  40  41 0
 6-311+G(2d,p)
 ****
 1  2  3  4  5  16  17  18  19  20  21  22  23  24  25 0
 3-21G
 ****
 27  28  30  31  32  35  37  42  43  44  45  46  47 0
 3-21G
 ****
 48  49 0
 3-21G
 ****


