%nproc=1
%NoSave
%Mem=1900MB
#P OB98/GEN NMR

erre ene a

0 1
  C     -519.460    -260.556    -328.764
  O     -519.906    -260.149    -327.485
  P     -521.028    -261.048    -326.771
  C     -518.922    -262.110    -325.670
  O     -520.301    -261.766    -325.540
  C     -518.479    -262.992    -324.501
  O     -518.549    -262.245    -323.267
  C     -519.343    -264.217    -324.293
  O     -519.022    -265.218    -325.239
  C     -518.994    -264.593    -322.857
  O     -517.825    -265.422    -322.810
  C     -518.719    -263.216    -322.208
  N     -519.768    -262.809    -321.280
  C     -519.722    -263.405    -320.017
  O     -518.844    -264.230    -319.744
  N     -520.693    -263.082    -319.099
  C     -521.631    -262.247    -319.424
  N     -522.567    -261.955    -318.482
  C     -521.727    -261.616    -320.760
  C     -520.775    -261.942    -321.633
  O     -521.253    -262.244    -327.814
  O     -522.295    -260.330    -326.451
  H     -517.677    -265.621    -321.861
  H     -522.150    -262.616    -327.730
  H     -522.526    -260.921    -320.979
  H     -520.770    -261.526    -322.632
  H     -517.771    -263.236    -321.659
  H     -519.798    -265.147    -322.370
  H     -520.407    -263.962    -324.357
  H     -517.433    -263.277    -324.667
  H     -522.478    -262.409    -317.581
  H     -518.318    -261.192    -325.667
  H     -523.323    -261.299    -318.626
  H     -518.771    -262.623    -326.622
  P     -520.066    -266.423    -325.429
  C     -520.610    -265.369    -327.703
  O     -520.260    -266.556    -327.013
  O     -521.444    -265.749    -324.981
  O     -519.782    -267.690    -324.688
  H     -522.155    -266.419    -324.954
  H     -520.554    -265.557    -328.783
  H     -519.917    -264.560    -327.455
  H     -521.632    -265.081    -327.449
  H     -518.718    -259.871    -329.118
  H     -520.287    -260.568    -329.443
  H     -519.037    -261.537    -328.699

 3  4  5  6  7  8  9  10  11  12  13  21  23  27  28  29  30  32 0
 6-311+G(2d,p)
 ****
 34  35 0
 6-311+G(2d,p)
 ****
 1  2  14  15  16  17  18  19  20  22  24  25  26 0
 3-21G
 ****
 31  33  36  37  38  39  40  41  42  43  44  45  46 0
 3-21G
 ****


