%nproc=1
%NoSave
%Mem=1900MB
#P OB98/GEN NMR

erre ene a

0 1
  C     -881.737     647.921    -945.480
  O     -881.616     647.254    -944.237
  H     -882.645     647.587    -945.981
  H     -880.876     647.680    -946.118
  H     -881.787     648.999    -945.331
  P     -880.435     647.725    -943.271
  C     -881.806     649.355    -941.732
  O     -881.102     648.123    -941.864
  C     -882.537     649.406    -940.394
  O     -883.416     648.260    -940.235
  C     -881.613     649.328    -939.182
  O     -880.861     650.504    -938.993
  C     -882.624     649.049    -938.083
  O     -883.307     650.251    -937.683
  C     -883.595     648.076    -938.797
  N     -883.394     646.687    -938.401
  C     -884.552     645.892    -938.395
  O     -885.647     646.372    -938.720
  N     -884.435     644.586    -937.993
  C     -883.280     644.103    -937.659
  N     -883.236     642.799    -937.264
  C     -882.036     644.914    -937.693
  C     -882.156     646.176    -938.073
  O     -880.017     649.141    -943.882
  O     -879.306     646.768    -943.120
  H     -882.641     650.814    -937.233
  H     -880.773     649.751    -943.994
  H     -881.088     644.460    -937.415
  H     -881.317     646.837    -938.104
  H     -884.643     648.359    -938.586
  H     -882.162     648.640    -937.192
  H     -880.961     648.451    -939.269
  H     -883.143     650.315    -940.367
  H     -884.121     642.289    -937.251
  H     -882.511     649.496    -942.563
  H     -882.402     642.335    -936.946
  H     -881.075     650.171    -941.792
  P     -879.344     650.438    -938.482
  C     -878.410     650.243    -940.871
  O     -878.417     651.013    -939.677
  O     -878.924     649.099    -937.963
  O     -879.272     651.616    -937.394
  H     -879.475     652.508    -937.748
  H     -877.770     650.708    -941.592
  H     -879.404     650.183    -941.263
  H     -878.051     649.258    -940.658

 6  7  8  9  10  11  12  13  14  15  16  26  30  31  32  33  35 0
 6-311+G(2d,p)
 ****
 37  38 0
 6-311+G(2d,p)
 ****
 1  2  3  4  5  17  18  19  20  21  22  23  24  25 0
 3-21G
 ****
 27  28  29  34  36  39  40  41  42  43  44  45  46 0
 3-21G
 ****


