%nproc=1
%NoSave
%Mem=1900MB
#P OB98/GEN NMR

erre ene a

0 1
  C       74.209      -7.267     189.479
  O       73.546      -6.544     190.517
  P       73.474      -4.946     190.435
  C       75.568      -4.499     191.872
  O       74.954      -4.348     190.600
  C       76.353      -3.235     192.260
  O       77.426      -3.012     191.307
  C       75.479      -1.973     192.290
  O       75.608      -1.230     193.502
  C       75.870      -1.242     191.019
  O       75.608       0.153     191.078
  C       77.331      -1.662     190.821
  N       77.751      -1.543     189.422
  C       77.798      -0.262     188.891
  O       77.436       0.739     189.510
  N       78.219      -0.163     187.590
  C       78.515      -1.210     186.768
  O       78.844      -1.075     185.595
  C       78.387      -2.549     187.364
  C       78.017      -2.651     188.645
  O       72.431      -4.301     191.285
  O       73.173      -4.683     188.877
  H       74.640       0.283     191.178
  H       72.547      -3.934     188.815
  H       78.275       0.762     187.195
  H       78.592      -3.402     186.736
  H       77.903      -3.623     189.106
  H       78.003      -1.034     191.417
  H       75.273      -1.645     190.189
  H       74.413      -2.225     192.248
  H       76.795      -3.418     193.244
  H       76.254      -5.346     191.843
  H       74.805      -4.747     192.618
  P       74.485      -1.147     194.638
  C       74.030       1.359     194.154
  O       73.493       0.057     194.278
  O       74.981      -1.152     196.045
  O       73.596      -2.452     194.363
  H       73.343      -2.853     195.216
  H       73.220       2.083     194.279
  H       74.462       1.482     193.158
  H       74.793       1.549     194.913
  H       74.164      -8.315     189.690
  H       75.232      -6.957     189.426
  H       73.728      -7.070     188.544

 3  4  5  6  7  8  9  10  11  12  13  23  28  29  30  31  32 0
 6-311+G(2d,p)
 ****
 33  34 0
 6-311+G(2d,p)
 ****
 1  2  14  15  16  17  18  19  20  21  22  24  25  26  27 0
 3-21G
 ****
 35  36  37  38  39  40  41  42  43  44  45 0
 3-21G
 ****


