%nproc=1
%NoSave
%Mem=1900MB
#P OB98/GEN NMR

erre ene a

0 1
  C      489.039    -895.179    -436.147
  O      488.471    -894.009    -435.602
  H      490.094    -894.989    -436.368
  H      488.531    -895.469    -437.072
  H      488.982    -895.999    -435.421
  P      486.893    -893.999    -435.300
  C      487.261    -894.799    -432.870
  O      486.706    -895.089    -434.138
  C      486.388    -895.389    -431.762
  O      485.060    -894.829    -431.797
  C      486.178    -896.899    -431.843
  O      487.318    -897.649    -431.452
  C      485.016    -897.059    -430.872
  O      485.497    -896.969    -429.522
  C      484.152    -895.819    -431.248
  N      483.087    -896.129    -432.186
  C      482.530    -895.049    -432.898
  O      482.951    -893.919    -432.723
  N      481.501    -895.299    -433.764
  C      481.037    -896.509    -433.900
  N      479.977    -896.679    -434.740
  C      481.592    -897.669    -433.185
  C      482.596    -897.409    -432.348
  O      485.993    -894.159    -436.486
  O      486.654    -892.629    -434.499
  H      486.152    -896.249    -429.498
  H      485.690    -892.579    -434.296
  H      481.173    -898.639    -433.327
  H      483.056    -898.219    -431.775
  H      483.697    -895.389    -430.344
  H      484.506    -898.009    -430.973
  H      485.844    -897.189    -432.844
  H      486.827    -895.089    -430.796
  H      479.601    -895.849    -435.186
  H      487.336    -893.709    -432.773
  H      479.403    -897.519    -434.688
  H      488.265    -895.239    -432.784
  P      487.225    -899.249    -431.532
  C      488.464    -899.429    -433.820
  O      487.263    -899.639    -433.088
  O      485.705    -899.539    -431.112
  O      488.213    -899.999    -430.691
  H      485.644    -899.729    -430.155
  H      488.322    -899.738    -434.834
  H      489.254    -900.000    -433.380
  H      488.719    -898.390    -433.797

 6  7  8  9  10  11  12  13  14  15  16  26  30  31  32  33  35 0
 6-311+G(2d,p)
 ****
 37  38 0
 6-311+G(2d,p)
 ****
 1  2  3  4  5  17  18  19  20  21  22  23  24  25 0
 3-21G
 ****
 27  28  29  34  36  39  40  41  42  43  44  45  46 0
 3-21G
 ****


