%nproc=1
%NoSave
%Mem=1900MB
#P OB98/GEN NMR

erre ene a

0 1
  C     -156.575      57.165    -346.000
  O     -157.509      57.612    -345.036
  H     -156.468      56.081    -345.906
  H     -155.600      57.631    -345.826
  H     -156.928      57.402    -347.007
  P     -157.823      59.187    -345.018
  C     -159.891      59.095    -346.596
  O     -158.545      59.518    -346.411
  C     -160.767      60.294    -346.934
  O     -160.908      61.145    -345.771
  C     -160.188      61.193    -348.021
  O     -160.386      60.663    -349.321
  C     -160.953      62.484    -347.773
  O     -162.245      62.462    -348.395
  C     -161.096      62.497    -346.246
  N     -160.223      67.329    -344.842
  C     -161.307      66.724    -345.375
  N     -161.467      65.428    -345.712
  C     -160.359      64.723    -345.415
  C     -159.182      65.198    -344.866
  C     -159.132      66.572    -344.570
  N     -158.019      67.193    -344.046
  N     -158.255      64.180    -344.745
  C     -158.867      63.109    -345.204
  N     -160.140      63.387    -345.616
  O     -156.374      59.847    -345.170
  O     -158.534      59.676    -343.800
  H     -162.718      63.253    -348.072
  H     -156.053      60.136    -344.294
  H     -162.160      67.373    -345.568
  H     -158.429      62.119    -345.265
  H     -162.098      62.818    -345.926
  H     -160.406      63.343    -348.171
  H     -159.123      61.370    -347.836
  H     -161.764      59.933    -347.214
  H     -160.253      58.629    -345.673
  H     -159.921      58.353    -347.400
  H     -158.034      68.190    -343.927
  H     -157.165      66.658    -343.946
  P     -159.414      61.169    -350.487
  C     -157.880      59.111    -350.001
  O     -157.971      60.511    -350.225
  O     -159.192      62.717    -350.159
  O     -159.937      60.964    -351.872
  H     -159.118      63.229    -350.990
  H     -156.857      58.841    -349.845
  H     -158.261      58.588    -350.853
  H     -158.454      58.850    -349.136

 6  7  8  9  10  11  12  13  14  15  25  28  32  33  34  35 0
 6-311+G(2d,p)
 ****
 36  37  40 0
 6-311+G(2d,p)
 ****
 1  2  3  4  5  16  17  18  19  20  21  22  23  24 0
 3-21G
 ****
 26  27  29  30  31  38  39 41  42  43  44  45  46  47  48 0
 3-21G
 ****


