%nproc=1
%NoSave
%Mem=1900MB
#P OB98/GEN NMR

erre ene a

0 1
  C      158.156    -208.378     324.471
  O      158.155    -207.029     324.884
  H      159.158    -208.634     324.109
  H      157.447    -208.523     323.652
  H      157.903    -209.044     325.301
  P      156.863    -206.456     325.646
  C      155.871    -206.129     323.289
  O      156.056    -205.568     324.583
  C      155.744    -205.014     322.250
  O      155.750    -205.573     320.919
  C      154.452    -204.208     322.360
  O      154.507    -203.305     323.445
  C      154.407    -203.557     320.983
  O      155.275    -202.415     320.929
  C      154.948    -204.703     320.086
  N      153.889    -205.456     319.412
  C      153.336    -204.862     318.281
  O      153.671    -203.752     317.871
  N      152.363    -205.591     317.641
  C      151.845    -206.783     318.064
  O      150.934    -207.368     317.481
  C      152.442    -207.336     319.287
  C      153.420    -206.664     319.893
  O      157.122    -205.784     326.953
  O      155.930    -207.744     325.822
  H      156.147    -202.707     321.262
  H      156.012    -208.091     326.733
  H      151.944    -205.174     316.825
  H      152.053    -208.282     319.655
  H      153.871    -207.057     320.796
  H      155.622    -204.297     319.315
  H      153.410    -203.212     320.713
  H      153.591    -204.881     322.457
  H      156.622    -204.358     322.346
  H      154.957    -206.729     323.290
  H      156.722    -206.779     323.059
  P      153.174    -202.854     324.208
  C      153.235    -200.387     323.521
  O      153.340    -201.302     324.602
  O      152.750    -203.741     325.333
  O      152.065    -202.816     323.053
  H      151.462    -203.585     323.146
  H      153.359    -199.389     323.885
  H      152.272    -200.483     323.065
  H      153.995    -200.600     322.798

 6  7  8  9  10  11  12  13  14  15  16  26  31  32  33  34  35 0
 6-311+G(2d,p)
 ****
 36  37 0
 6-311+G(2d,p)
 ****
 1  2  3  4  5  17  18  19  20  21  22  23  24  25 0
 3-21G
 ****
 27  28  29  30  38  39  40  41  42  43  44  45 0
 3-21G
 ****


