%nproc=1
%NoSave
%Mem=1900MB
#P OB98/GEN NMR

erre ene a

0 1
  C     -387.433    -600.168    -461.375
  O     -387.352    -601.443    -460.723
  P     -387.483    -602.816    -461.530
  C     -385.369    -604.132    -460.882
  O     -386.024    -603.364    -461.890
  C     -383.913    -603.677    -460.666
  O     -383.868    -602.293    -460.262
  C     -383.161    -604.461    -459.602
  O     -382.721    -605.708    -460.105
  C     -382.040    -603.475    -459.256
  O     -380.977    -603.569    -460.216
  C     -382.758    -602.128    -459.362
  N     -381.414    -599.478    -455.204
  C     -380.742    -599.777    -456.332
  N     -381.165    -600.508    -457.396
  C     -382.437    -600.890    -457.224
  C     -383.258    -600.654    -456.123
  C     -382.688    -599.906    -455.069
  N     -383.380    -599.605    -453.913
  N     -384.484    -601.241    -456.292
  C     -384.438    -601.806    -457.480
  N     -383.222    -601.612    -458.082
  O     -388.414    -602.768    -462.692
  O     -388.024    -603.877    -460.443
  H     -381.367    -603.539    -461.109
  H     -388.536    -604.576    -460.884
  H     -379.732    -599.404    -456.386
  H     -385.245    -602.339    -457.956
  H     -382.108    -601.360    -459.800
  H     -381.598    -603.674    -458.271
  H     -383.786    -604.606    -458.728
  H     -383.402    -603.757    -461.641
  H     -385.377    -605.186    -461.186
  H     -382.886    -599.097    -453.193
  H     -384.315    -599.967    -453.790
  H     -385.938    -604.030    -459.941
  P     -383.729    -606.958    -460.143
  C     -383.977    -607.630    -462.612
  O     -384.518    -606.881    -461.549
  O     -384.593    -607.123    -458.933
  O     -382.765    -608.206    -460.367
  H     -383.166    -609.006    -459.961
  H     -383.137    -607.070    -463.060
  H     -384.742    -607.767    -463.372
  H     -383.625    -608.609    -462.267
  H     -387.320    -599.389    -460.650
  H     -388.384    -600.073    -461.856
  H     -386.655    -600.091    -462.106

 3  4  5  6  7  8  9  10  11  12  22  25  29  30  31  32 0
 6-311+G(2d,p)
 ****
 33  36  37 0
 6-311+G(2d,p)
 ****
 1  2  13  14  15  16  17  18  19  20  21  23  24  26 0
 3-21G
 ****
 27  28  34  35  38  39  40  41  42  43  44  45  46  47  48 0
 3-21G
 ****


