%nproc=1
%NoSave
%Mem=1900MB
#P OB98/GEN NMR

erre ene a

0 1
  C      106.772     -17.331     120.214
  O      107.029     -16.632     121.414
  H      105.836     -17.884     120.327
  H      107.574     -18.044     120.008
  H      106.666     -16.635     119.378
  P      108.358     -15.738     121.508
  C      107.477     -13.865     119.950
  O      107.836     -14.235     121.272
  C      106.760     -12.518     119.956
  O      105.398     -12.651     120.417
  C      107.373     -11.469     120.875
  O      108.586     -10.920     120.389
  C      106.247     -10.452     120.900
  O      106.236      -9.713     119.666
  C      105.015     -11.379     121.011
  N      104.576     -11.568     122.393
  C      103.377     -10.947     122.760
  O      102.745     -10.271     121.950
  N      102.934     -11.076     124.055
  C      103.639     -11.746     124.913
  N      103.157     -11.835     126.183
  C      104.917     -12.399     124.574
  C      105.321     -12.275     123.312
  O      109.498     -16.165     120.642
  O      108.714     -15.712     123.068
  H      107.068      -9.206     119.631
  H      109.538     -15.178     123.180
  H      105.481     -12.921     125.332
  H      106.254     -12.722     122.987
  H      104.176     -10.986     120.424
  H      106.339      -9.726     121.710
  H      107.504     -11.865     121.889
  H      106.714     -12.166     118.917
  H      102.279     -11.377     126.386
  H      106.835     -14.650     119.538
  H      103.676     -12.272     126.933
  H      108.373     -13.776     119.329
  P      109.872     -11.033     121.347
  C      110.857     -13.254     120.391
  O      110.977     -11.847     120.522
  O      109.393     -12.056     122.476
  O      110.358      -9.736     121.914
  H      109.107     -11.578     123.278
  H      111.676     -13.630     119.813
  H      109.936     -13.489     119.899
  H      110.869     -13.705     121.361

 6  7  8  9  10  11  12  13  14  15  16  26  30  31  32  33  35 0
 6-311+G(2d,p)
 ****
 37  38 0
 6-311+G(2d,p)
 ****
 1  2  3  4  5  17  18  19  20  21  22  23  24  25 0
 3-21G
 ****
 27  28  29  34  36  39  40  41  42  43  44  45  46 0
 3-21G
 ****


