%nproc=1
%NoSave
%Mem=1900MB
#P OB98/GEN NMR

erre ene a

0 1
  C      245.020      96.832     -73.802
  O      244.316      96.611     -75.030
  P      243.764      97.820     -75.927
  C      244.932     100.016     -76.599
  O      245.012      98.593     -76.575
  C      246.318     100.664     -76.475
  O      247.058     100.087     -75.383
  C      247.199     100.510     -77.709
  O      246.821     101.435     -78.712
  C      248.585     100.735     -77.114
  O      248.847     102.142     -76.968
  C      248.452     100.070     -75.740
  N      251.162      96.695     -73.017
  C      250.784      97.965     -72.761
  N      250.068      98.804     -73.538
  C      249.708      98.195     -74.685
  C      250.023      96.904     -75.083
  C      250.789      96.136     -74.192
  N      251.187      94.845     -74.461
  N      249.503      96.640     -76.335
  C      248.871      97.748     -76.674
  N      248.966      98.713     -75.710
  O      242.794      98.712     -75.221
  O      243.072      97.113     -77.185
  H      249.611     102.237     -76.371
  H      242.359      97.682     -77.532
  H      251.105      98.365     -71.801
  H      248.329      97.894     -77.601
  H      248.980     100.638     -74.963
  H      249.384     100.316     -77.735
  H      247.130      99.488     -78.093
  H      246.168     101.727     -76.241
  H      244.302     100.341     -75.760
  H      251.765      94.373     -73.785
  H      250.954      94.438     -75.356
  H      244.460     100.323     -77.536
  P      246.183     100.913     -80.088
  C      243.770     100.525     -80.870
  O      244.633     101.319     -80.074
  O      246.465      99.490     -80.429
  O      246.795     101.908     -81.187
  H      246.866     101.438     -82.040
  H      243.844     100.847     -81.913
  H      242.743     100.671     -80.525
  H      244.026      99.467     -80.790
  H      245.294      95.891     -73.373
  H      244.390      97.364     -73.120
  H      245.902      97.406     -73.995

 3  4  5  6  7  8  9  10  11  12  22  25  29  30  31  32 0
 6-311+G(2d,p)
 ****
 33  36  37 0
 6-311+G(2d,p)
 ****
 1  2  13  14  15  16  17  18  19  20  21  23  24  26 0
 3-21G
 ****
 27  28  34  35  38  39  40  41  42  43  44  45  46  47  48 0
 3-21G
 ****


