%nproc=1
%NoSave
%Mem=1900MB
#P OB98/GEN NMR

erre ene a

0 1
  C      486.852     174.053    -233.090
  O      485.723     173.612    -232.347
  P      485.303     172.061    -232.299
  C      484.207     171.825    -234.634
  O      484.001     171.950    -233.240
  C      483.021     172.414    -235.405
  O      483.414     172.606    -236.787
  C      481.765     171.542    -235.395
  O      480.632     172.423    -235.364
  C      481.844     170.812    -236.721
  O      480.576     170.331    -237.163
  C      482.458     171.903    -237.605
  N      483.090     171.356    -238.802
  C      482.251     170.915    -239.839
  O      481.033     170.960    -239.724
  N      482.829     170.421    -240.981
  C      484.121     170.302    -241.061
  N      484.649     169.867    -242.237
  C      485.036     170.655    -239.949
  C      484.459     171.186    -238.879
  O      485.133     171.501    -230.937
  O      486.409     171.321    -233.184
  H      480.188     169.803    -236.441
  H      487.224     171.097    -232.666
  H      486.099     170.503    -240.048
  H      485.044     171.504    -238.024
  H      481.694     172.636    -237.896
  H      482.523     169.949    -236.623
  H      481.715     170.869    -234.525
  H      482.799     173.408    -234.988
  H      484.005     169.802    -243.024
  H      484.286     170.759    -234.879
  H      485.613     170.052    -242.473
  H      485.145     172.314    -234.915
  P      479.546     172.239    -234.196
  C      477.660     171.306    -235.718
  O      478.086     172.335    -234.847
  O      479.663     173.648    -233.431
  O      479.788     171.114    -233.240
  H      479.377     173.524    -232.501
  H      476.649     171.532    -236.059
  H      477.643     170.349    -235.191
  H      478.318     171.241    -236.592
  H      486.954     175.113    -232.989
  H      486.719     173.804    -234.122
  H      487.733     173.573    -232.718

 3  4  5  6  7  8  9  10  11  12  13  23  27  28  29  30  32 0
 6-311+G(2d,p)
 ****
 34  35 0
 6-311+G(2d,p)
 ****
 1  2  14  15  16  17  18  19  20  21  22  24  25  26 0
 3-21G
 ****
 31  33  36  37  38  39  40  41  42  43  44  45  46 0
 3-21G
 ****


