%nproc=1
%NoSave
%Mem=1900MB
#P OB98/GEN NMR

erre ene a

0 1
  C      -83.626     713.309     163.005
  O      -84.230     714.320     163.786
  H      -84.291     712.445     162.970
  H      -82.675     713.003     163.451
  H      -83.455     713.660     161.979
  P      -83.519     715.753     163.889
  C      -81.519     716.759     165.168
  O      -82.277     715.584     164.892
  C      -80.722     716.570     166.461
  O      -81.621     716.436     167.587
  C      -79.849     715.312     166.474
  O      -78.691     715.503     165.684
  C      -79.601     715.168     167.969
  O      -78.574     716.072     168.414
  C      -80.974     715.575     168.554
  N      -81.817     714.421     168.882
  C      -81.502     713.756     170.072
  O      -80.575     714.083     170.805
  N      -82.275     712.654     170.348
  C      -83.237     712.122     169.534
  O      -83.744     711.020     169.720
  C      -83.571     712.912     168.345
  C      -82.857     714.006     168.072
  O      -84.422     716.905     164.186
  O      -82.800     715.919     162.464
  H      -83.337     716.504     161.900
  H      -78.885     716.972     168.202
  H      -82.023     712.129     171.174
  H      -84.378     712.564     167.708
  H      -83.066     714.584     167.177
  H      -80.839     716.173     169.467
  H      -79.282     714.161     168.241
  H      -80.429     714.450     166.125
  H      -80.110     717.466     166.624
  H      -82.198     717.601     165.282
  H      -80.846     716.948     164.322
  P      -77.623     714.324     165.501
  C      -75.496     713.484     166.656
  O      -76.605     714.356     166.740
  O      -76.959     714.277     164.157
  O      -78.467     712.977     165.760
  H      -78.351     712.375     164.995
  H      -74.891     713.591     167.532
  H      -74.916     713.727     165.790
  H      -75.841     712.474     166.582

 6  7  8  9  10  11  12  13  14  15  16  27  31  32  33  34  35 0
 6-311+G(2d,p)
 ****
 36  37 0
 6-311+G(2d,p)
 ****
 1  2  3  4  5  17  18  19  20  21  22  23  24  25 0
 3-21G
 ****
 26  28  29  30  38  39  40  41  42  43  44  45 0
 3-21G
 ****


