%nproc=1
%NoSave
%Mem=1900MB
#P OB98/GEN NMR

erre ene a

0 1
  C      193.993    -303.440     147.284
  O      195.147    -302.876     146.692
  H      193.293    -302.639     147.527
  H      194.265    -303.961     148.204
  H      193.508    -304.135     146.590
  P      196.206    -303.882     146.040
  C      195.033    -304.321     143.758
  O      195.383    -304.830     145.037
  C      195.261    -305.389     142.689
  O      194.481    -306.571     143.037
  C      194.840    -304.958     141.276
  O      195.757    -305.530     140.333
  C      193.480    -305.616     141.109
  O      193.101    -305.813     139.754
  C      193.698    -306.919     141.878
  N      192.440    -307.558     142.267
  C      192.339    -308.935     142.096
  O      193.255    -309.661     141.724
  N      191.110    -309.476     142.373
  C      189.999    -308.794     142.773
  O      188.916    -309.332     142.983
  C      190.167    -307.336     142.927
  C      191.355    -306.795     142.667
  O      196.577    -304.854     147.254
  O      197.411    -303.242     145.432
  H      197.331    -304.501     147.758
  H      192.856    -304.939     139.389
  H      191.023    -310.468     142.256
  H      189.301    -306.763     143.230
  H      191.508    -305.726     142.749
  H      194.292    -307.620     141.281
  H      192.711    -305.003     141.588
  H      194.792    -303.870     141.133
  H      196.317    -305.686     142.707
  H      195.659    -303.452     143.534
  H      193.983    -304.007     143.770
  P      196.475    -304.532     139.303
  C      198.892    -304.870     140.253
  O      197.786    -304.002     140.058
  O      195.468    -303.287     139.331
  O      196.693    -305.140     137.959
  H      195.077    -303.137     140.206
  H      199.669    -304.347     140.771
  H      199.257    -305.202     139.303
  H      198.584    -305.715     140.832

 6  7  8  9  10  11  12  13  14  15  16  27  31  32  33  34  35 0
 6-311+G(2d,p)
 ****
 36  37 0
 6-311+G(2d,p)
 ****
 1  2  3  4  5  17  18  19  20  21  22  23  24  25 0
 3-21G
 ****
 26  28  29  30  38  39  40  41  42  43  44  45 0
 3-21G
 ****


