%nproc=1
%NoSave
%Mem=1900MB
#P OB98/GEN NMR

erre ene a

0 1
  C     -464.121    -962.989     965.870
  O     -465.397    -962.387     965.970
  P     -466.128    -961.811     964.662
  C     -467.319    -964.002     964.042
  O     -466.322    -963.054     963.663
  C     -468.538    -963.864     963.126
  O     -469.157    -962.561     963.286
  C     -468.218    -963.943     961.641
  O     -467.742    -965.177     961.141
  C     -469.492    -963.393     961.027
  O     -470.512    -964.380     960.969
  C     -469.871    -962.282     962.049
  N     -469.588    -960.947     961.546
  C     -470.474    -960.459     960.593
  O     -471.448    -961.086     960.190
  N     -470.191    -959.206     960.103
  C     -469.100    -958.451     960.420
  O     -468.886    -957.360     959.901
  C     -468.198    -959.029     961.419
  C     -468.462    -960.233     961.934
  O     -465.479    -960.611     964.049
  O     -467.622    -961.544     965.174
  H     -471.355    -963.928     960.767
  H     -468.086    -962.338     965.499
  H     -470.808    -958.838     959.398
  H     -467.327    -958.440     961.700
  H     -467.814    -960.683     962.666
  H     -470.946    -962.344     962.295
  H     -469.335    -963.029     960.008
  H     -467.417    -963.214     961.421
  H     -469.275    -964.608     963.419
  H     -467.619    -963.816     965.077
  H     -466.894    -965.010     963.983
  P     -466.897    -965.317     959.788
  C     -464.601    -964.908     960.922
  O     -465.536    -964.487     959.957
  O     -467.649    -965.155     958.500
  O     -466.370    -966.840     959.892
  H     -466.285    -967.198     959.005
  H     -463.763    -964.208     960.930
  H     -464.222    -965.910     960.672
  H     -465.064    -964.921     961.916
  H     -463.800    -963.309     966.840
  H     -463.422    -962.280     965.479
  H     -464.176    -963.834     965.216

 3  4  5  6  7  8  9  10  11  12  13  23  28  29  30  31  32 0
 6-311+G(2d,p)
 ****
 33  34 0
 6-311+G(2d,p)
 ****
 1  2  14  15  16  17  18  19  20  21  22  24  25  26  27 0
 3-21G
 ****
 35  36  37  38  39  40  41  42  43  44  45 0
 3-21G
 ****


