%nproc=1
%NoSave
%Mem=1900MB
#P OB98/GEN NMR

erre ene a

0 1
  C      257.130    -201.438     277.164
  O      258.405    -201.147     277.705
  P      258.914    -199.620     277.628
  C      260.599    -200.227     275.744
  O      259.515    -199.397     276.153
  C      261.872    -199.403     275.552
  O      262.964    -200.301     275.209
  C      261.790    -198.335     274.444
  O      262.578    -197.225     274.881
  C      262.439    -199.048     273.273
  O      262.851    -198.188     272.221
  C      263.560    -199.793     273.997
  N      267.623    -201.362     271.303
  C      267.405    -200.242     272.039
  N      266.299    -199.902     272.733
  C      265.357    -200.856     272.630
  C      265.431    -202.031     271.907
  C      266.632    -202.273     271.219
  N      266.846    -203.412     270.457
  N      264.259    -202.752     272.015
  C      263.488    -202.019     272.794
  N      264.117    -200.873     273.206
  O      260.213    -199.626     278.564
  O      257.910    -198.596     278.069
  H      263.397    -198.687     271.577
  H      260.275    -198.802     279.083
  H      268.221    -199.528     272.071
  H      262.473    -202.265     273.069
  H      264.382    -199.128     274.277
  H      261.724    -199.757     272.841
  H      260.768    -197.994     274.245
  H      262.127    -198.930     276.508
  H      260.343    -200.689     274.784
  H      267.651    -203.391     269.850
  H      266.039    -203.974     270.239
  H      260.745    -201.020     276.479
  P      262.067    -195.736     274.560
  C      263.305    -195.723     272.300
  O      262.059    -195.674     272.949
  O      263.378    -194.882     274.896
  O      260.839    -195.297     275.270
  H      264.170    -195.249     274.456
  H      263.150    -195.774     271.224
  H      263.871    -196.609     272.620
  H      263.882    -194.816     272.535
  H      256.922    -202.481     277.282
  H      257.118    -201.188     276.124
  H      256.386    -200.865     277.677

 3  4  5  6  7  8  9  10  11  12  22  25  29  30  31  32 0
 6-311+G(2d,p)
 ****
 33  36  37 0
 6-311+G(2d,p)
 ****
 1  2  13  14  15  16  17  18  19  20  21  23  24  26 0
 3-21G
 ****
 27  28  34  35  38  39  40  41  42  43  44  45  46  47  48 0
 3-21G
 ****


