%nproc=1
%NoSave
%Mem=1900MB
#P OB98/GEN NMR

erre ene a

0 1
  C      -24.646     139.595     146.967
  O      -23.509     140.452     146.892
  P      -23.603     141.874     147.623
  C      -24.269     143.438     145.625
  O      -24.656     142.772     146.813
  C      -24.416     144.964     145.774
  O      -25.829     145.279     145.889
  C      -23.766     145.564     147.015
  O      -23.608     146.971     146.815
  C      -24.825     145.321     148.068
  O      -24.630     146.149     149.211
  C      -26.134     145.558     147.281
  N      -27.259     144.712     147.735
  C      -28.556     145.197     147.585
  O      -28.825     146.295     147.098
  N      -29.558     144.394     148.054
  C      -29.402     143.159     148.606
  O      -30.327     142.519     149.090
  C      -28.031     142.636     148.613
  C      -27.038     143.425     148.195
  O      -22.188     142.549     147.314
  O      -23.874     141.780     149.087
  H      -24.500     147.065     148.874
  H      -21.626     142.532     148.110
  H      -30.497     144.762     148.011
  H      -27.873     141.630     148.984
  H      -26.016     143.058     148.212
  H      -26.460     146.603     147.362
  H      -24.776     144.282     148.407
  H      -22.806     145.115     147.287
  H      -24.044     145.452     144.866
  H      -24.868     143.079     144.785
  H      -23.226     143.197     145.391
  P      -22.137     147.592     146.964
  C      -23.207     149.210     148.651
  O      -22.113     148.357     148.373
  O      -21.633     148.370     145.797
  O      -21.231     146.299     147.254
  H      -20.298     146.506     147.066
  H      -23.359     149.245     149.733
  H      -24.124     148.852     148.174
  H      -22.978     150.216     148.290
  H      -24.444     138.687     146.439
  H      -25.490     140.083     146.527
  H      -24.857     139.372     147.992

 3  4  5  6  7  8  9  10  11  12  13  23  28  29  30  31  32 0
 6-311+G(2d,p)
 ****
 33  34 0
 6-311+G(2d,p)
 ****
 1  2  14  15  16  17  18  19  20  21  22  24  25  26  27 0
 3-21G
 ****
 35  36  37  38  39  40  41  42  43  44  45 0
 3-21G
 ****


