%nproc=1
%NoSave
%Mem=1900MB
#P OB98/GEN NMR

erre ene a

0 1
  C     -540.871    -307.343     914.822
  O     -541.911    -307.303     915.796
  P     -541.790    -308.312     917.038
  C     -542.194    -310.567     915.792
  O     -542.708    -309.586     916.687
  C     -543.145    -311.768     915.740
  O     -543.259    -312.371     917.044
  C     -544.574    -311.424     915.321
  O     -544.659    -311.203     913.921
  C     -545.307    -312.674     915.811
  O     -545.121    -313.745     914.884
  C     -544.570    -312.977     917.137
  N     -547.721    -314.106     921.041
  C     -547.238    -314.857     920.008
  N     -546.415    -314.476     918.996
  C     -546.090    -313.181     919.107
  C     -546.513    -312.279     920.082
  C     -547.366    -312.793     921.090
  N     -547.838    -312.020     922.126
  N     -545.985    -311.029     919.863
  C     -545.247    -311.165     918.778
  N     -545.260    -312.445     918.294
  O     -542.609    -307.570     918.186
  O     -540.393    -308.632     917.455
  H     -544.241    -314.152     915.068
  H     -542.208    -307.746     919.063
  H     -547.554    -315.902     920.005
  H     -544.682    -310.365     918.308
  H     -544.434    -314.056     917.312
  H     -546.385    -312.510     915.927
  H     -544.933    -310.548     915.868
  H     -542.718    -312.517     915.046
  H     -541.220    -310.910     916.144
  H     -548.557    -312.420     922.705
  H     -547.693    -311.020     922.080
  H     -542.069    -310.123     914.798
  P     -545.202    -309.763     913.443
  C     -547.462    -310.141     914.616
  O     -546.794    -309.949     913.377
  O     -544.786    -309.745     911.898
  O     -544.706    -308.605     914.256
  H     -545.048    -310.568     911.466
  H     -548.527    -310.217     914.436
  H     -547.261    -309.323     915.299
  H     -547.115    -311.102     915.079
  H     -541.074    -306.626     914.054
  H     -540.822    -308.322     914.392
  H     -539.936    -307.112     915.289

 3  4  5  6  7  8  9  10  11  12  22  25  29  30  31  32 0
 6-311+G(2d,p)
 ****
 33  36  37 0
 6-311+G(2d,p)
 ****
 1  2  13  14  15  16  17  18  19  20  21  23  24  26 0
 3-21G
 ****
 27  28  34  35  38  39  40  41  42  43  44  45  46  47  48 0
 3-21G
 ****


