%nproc=1
%NoSave
%Mem=1900MB
#P OB98/GEN NMR

erre ene a

0 1
  C     -137.243     168.868    -713.209
  O     -137.524     170.203    -713.577
  H     -136.164     168.762    -713.075
  H     -137.572     168.182    -713.994
  H     -137.743     168.625    -712.268
  P     -139.055     170.540    -713.934
  C     -139.540     171.096    -711.434
  O     -139.832     170.273    -712.551
  C     -140.788     171.255    -710.559
  O     -141.905     171.714    -711.346
  C     -141.260     169.957    -709.904
  O     -140.488     169.580    -708.776
  C     -142.668     170.365    -709.514
  O     -142.616     171.237    -708.365
  C     -143.110     171.131    -710.779
  N     -143.777     170.275    -711.763
  C     -145.130     169.982    -711.531
  O     -145.704     170.429    -710.543
  N     -145.793     169.159    -712.407
  C     -145.169     168.684    -713.436
  N     -145.866     167.865    -714.269
  C     -143.751     168.971    -713.731
  C     -143.126     169.762    -712.863
  O     -139.509     169.295    -714.835
  O     -139.309     171.875    -714.548
  H     -142.307     170.692    -707.620
  H     -140.484     169.326    -714.989
  H     -143.265     168.537    -714.600
  H     -142.078     170.020    -713.013
  H     -143.787     171.959    -710.524
  H     -143.303     169.524    -709.245
  H     -141.318     169.136    -710.630
  H     -140.569     172.023    -709.809
  H     -146.823     167.641    -714.010
  H     -139.220     172.076    -711.804
  H     -145.438     167.326    -715.012
  H     -138.735     170.657    -710.842
  P     -140.482     168.022    -708.372
  C     -138.347     167.455    -709.763
  O     -139.738     167.244    -709.567
  O     -142.009     167.596    -708.550
  O     -139.965     167.733    -706.999
  H     -142.259     166.916    -707.891
  H     -138.010     166.868    -710.592
  H     -137.815     167.166    -708.881
  H     -138.168     168.491    -709.964

 6  7  8  9  10  11  12  13  14  15  16  26  30  31  32  33  35 0
 6-311+G(2d,p)
 ****
 37  38 0
 6-311+G(2d,p)
 ****
 1  2  3  4  5  17  18  19  20  21  22  23  24  25 0
 3-21G
 ****
 27  28  29  34  36  39  40  41  42  43  44  45  46 0
 3-21G
 ****


