%nproc=1
%NoSave
%Mem=1900MB
#P OB98/GEN NMR

erre ene a

0 1
  C     1016.928    1110.146    -110.756
  O     1017.439    1111.157    -111.599
  H     1017.670    1109.932    -109.981
  H     1016.738    1109.233    -111.319
  H     1016.003    1110.483    -110.272
  P     1016.581    1111.578    -112.890
  C     1018.399    1111.198    -114.696
  O     1017.630    1112.144    -113.967
  C     1019.896    1111.379    -114.425
  O     1020.189    1110.907    -113.086
  C     1020.800    1110.606    -115.403
  O     1022.025    1111.346    -115.533
  C     1021.034    1109.316    -114.633
  O     1022.098    1108.581    -115.169
  C     1021.191    1109.872    -113.214
  N     1021.067    1108.841    -112.191
  C     1022.074    1107.883    -112.137
  O     1023.021    1107.931    -112.928
  N     1021.994    1106.882    -111.201
  C     1020.948    1106.814    -110.433
  N     1020.914    1105.785    -109.537
  C     1019.818    1107.773    -110.496
  C     1019.950    1108.755    -111.387
  O     1015.411    1112.459    -112.633
  O     1016.135    1110.174    -113.530
  H     1022.256    1107.758    -114.639
  H     1015.192    1110.016    -113.335
  H     1018.961    1107.650    -109.851
  H     1019.170    1109.515    -111.512
  H     1022.179    1110.351    -113.099
  H     1020.147    1108.675    -114.694
  H     1020.344    1110.450    -116.385
  H     1020.118    1112.458    -114.444
  H     1021.704    1105.144    -109.538
  H     1018.181    1111.356    -115.754
  H     1020.145    1105.616    -108.913
  H     1018.097    1110.180    -114.431
  P     1022.941    1111.299    -116.845
  C     1025.359    1110.824    -116.103
  O     1024.416    1111.809    -116.486
  O     1022.337    1111.970    -118.035
  O     1023.153    1109.736    -117.141
  H     1023.244    1109.605    -118.106
  H     1026.298    1111.292    -115.891
  H     1025.483    1110.120    -116.899
  H     1025.009    1110.316    -115.229

 6  7  8  9  10  11  12  13  14  15  16  26  30  31  32  33  35 0
 6-311+G(2d,p)
 ****
 37  38 0
 6-311+G(2d,p)
 ****
 1  2  3  4  5  17  18  19  20  21  22  23  24  25 0
 3-21G
 ****
 27  28  29  34  36  39  40  41  42  43  44  45  46 0
 3-21G
 ****


