%nproc=1
%NoSave
%Mem=1900MB
#P OB98/GEN NMR

erre ene a

0 1
  C     -326.962      60.553     132.599
  O     -326.468      59.268     132.918
  H     -326.927      60.714     131.518
  H     -328.002      60.625     132.932
  H     -326.372      61.321     133.108
  P     -324.958      58.943     132.479
  C     -325.982      58.327     130.167
  O     -324.962      59.022     130.874
  C     -325.571      58.179     128.706
  O     -326.360      57.149     128.070
  C     -325.785      59.438     127.872
  O     -324.726      60.374     128.017
  C     -325.810      58.850     126.472
  O     -324.471      58.543     126.048
  C     -326.609      57.557     126.695
  N     -330.388      57.704     123.241
  C     -329.064      57.464     123.120
  N     -328.130      57.424     124.092
  C     -328.680      57.650     125.294
  C     -330.015      57.900     125.572
  C     -330.895      57.928     124.474
  N     -332.239      58.205     124.589
  N     -330.199      58.106     126.926
  C     -328.999      57.961     127.454
  N     -328.043      57.717     126.502
  O     -324.805      57.376     132.762
  O     -323.896      59.763     133.135
  H     -323.974      59.386     126.043
  H     -323.864      57.116     132.742
  H     -328.709      57.285     122.108
  H     -328.769      58.035     128.510
  H     -326.284      56.740     126.040
  H     -326.233      59.538     125.734
  H     -326.755      59.902     128.084
  H     -324.520      57.860     128.678
  H     -326.913      58.904     130.229
  H     -332.758      58.348     123.735
  H     -332.598      58.517     125.479
  H     -326.136      57.345     130.618
  P     -325.118      61.931     128.064
  C     -325.138      62.141     125.472
  O     -325.877      62.250     126.685
  O     -323.702      62.659     127.880
  O     -325.821      62.360     129.310
  H     -323.686      63.508     128.361
  H     -325.773      62.382     124.645
  H     -324.776      61.140     125.364
  H     -324.311      62.819     125.496

 6  7  8  9  10  11  12  13  14  15  25  28  32  33  34  35 0
 6-311+G(2d,p)
 ****
 36  39  40 0
 6-311+G(2d,p)
 ****
 1  2  3  4  5  16  17  18  19  20  21  22  23  24 0
 3-21G
 ****
 26  27  29  30  31  37  38  41  42  43  44  45  46  47 0
 3-21G
 ****
 48 0
 3-21G
 ****


