%nproc=1
%NoSave
%Mem=1900MB
#P OB98/GEN NMR

erre ene a

0 1
  C       -9.101     -34.414    -516.629
  O      -10.438     -34.208    -517.054
  P      -10.873     -34.499    -518.570
  C      -11.231     -33.060    -520.651
  O      -10.515     -33.197    -519.436
  C      -11.883     -31.674    -520.755
  O      -12.870     -31.517    -519.692
  C      -10.892     -30.497    -520.641
  O      -11.390     -29.462    -521.488
  C      -11.041     -30.081    -519.179
  O      -10.607     -28.748    -518.933
  C      -12.538     -30.302    -518.982
  N      -12.874     -27.896    -514.480
  C      -12.412     -27.491    -515.683
  N      -12.325     -28.213    -516.841
  C      -12.790     -29.443    -516.655
  C      -13.257     -30.015    -515.479
  C      -13.311     -29.175    -514.339
  N      -13.801     -29.567    -513.116
  N      -13.590     -31.352    -515.677
  C      -13.321     -31.566    -516.942
  N      -12.905     -30.449    -517.597
  O      -12.280     -35.002    -518.738
  O       -9.809     -35.593    -519.073
  H      -11.103     -28.145    -519.525
  H      -10.219     -36.470    -519.129
  H      -12.065     -26.460    -515.730
  H      -13.408     -32.534    -517.452
  H      -13.144     -29.494    -519.424
  H      -10.457     -30.753    -518.542
  H       -9.867     -30.753    -520.901
  H      -12.426     -31.623    -521.709
  H      -12.025     -33.827    -520.655
  H      -13.904     -28.856    -512.423
  H      -14.374     -30.407    -513.063
  H      -10.569     -33.241    -521.507
  P      -10.401     -28.735    -522.545
  C       -8.702     -26.829    -522.409
  O       -9.447     -27.797    -521.684
  O      -11.074     -28.086    -523.704
  O       -9.425     -29.921    -523.006
  H       -8.974     -29.669    -523.829
  H       -7.833     -27.306    -522.857
  H       -8.384     -26.027    -521.745
  H       -9.308     -26.381    -523.224
  H       -9.014     -34.165    -515.592
  H       -8.445     -33.792    -517.201
  H       -8.835     -35.440    -516.773

 3  4  5  6  7  8  9  10  11  12  22  25  29  30  31  32 0
 6-311+G(2d,p)
 ****
 33  36  37 0
 6-311+G(2d,p)
 ****
 1  2  13  14  15  16  17  18  19  20  21  23  24  26 0
 3-21G
 ****
 27  28  34  35  38  39  40  41  42  43  44  45  46  47  48 0
 3-21G
 ****


