%nproc=1
%NoSave
%Mem=1900MB
#P OB98/GEN NMR

erre ene a

0 1
  C     -175.368     410.057     275.482
  O     -175.327     409.730     276.874
  P     -173.960     409.971     277.686
  C     -172.398     407.919     277.686
  O     -172.798     409.106     277.005
  C     -170.884     407.668     277.507
  O     -170.106     408.747     278.117
  C     -170.433     406.360     278.162
  O     -169.350     405.772     277.409
  C     -169.868     406.821     279.488
  O     -168.969     405.854     280.051
  C     -169.217     408.145     279.074
  N     -166.440     409.010     283.296
  C     -166.357     408.055     282.340
  N     -167.107     407.909     281.230
  C     -168.035     408.879     281.161
  C     -168.247     409.916     282.059
  C     -167.395     409.957     283.176
  N     -167.517     410.908     284.166
  N     -169.292     410.713     281.637
  C     -169.739     410.146     280.557
  N     -169.004     409.041     280.194
  O     -174.054     409.841     279.166
  O     -173.561     411.469     277.269
  H     -168.533     406.285     280.819
  H     -173.235     411.948     278.064
  H     -165.565     407.324     282.488
  H     -170.612     410.466     279.980
  H     -168.253     407.989     278.581
  H     -170.696     406.977     280.205
  H     -171.225     405.605     278.283
  H     -170.653     407.676     276.439
  H     -172.965     407.070     277.310
  H     -166.939     410.796     284.988
  H     -168.302     411.540     284.152
  H     -172.659     408.013     278.739
  P     -169.759     404.533     276.464
  C     -169.887     402.538     278.156
  O     -170.569     403.509     277.385
  O     -168.602     403.955     275.710
  O     -170.869     405.188     275.509
  H     -171.573     405.668     275.993
  H     -170.616     402.045     278.813
  H     -169.124     403.013     278.775
  H     -169.428     401.802     277.499
  H     -176.341     409.839     275.093
  H     -174.637     409.478     274.958
  H     -175.157     411.098     275.354

 3  4  5  6  7  8  9  10  11  12  22  25  29  30  31  32 0
 6-311+G(2d,p)
 ****
 33  36  37 0
 6-311+G(2d,p)
 ****
 1  2  13  14  15  16  17  18  19  20  21  23  24  26 0
 3-21G
 ****
 27  28  34  35  38  39  40  41  42  43  44  45  46  47  48 0
 3-21G
 ****


