%nproc=1
%NoSave
%Mem=1900MB
#P OB98/GEN NMR

erre ene a

0 1
  C       50.993      17.105      41.935
  O       51.357      18.383      42.428
  P       52.448      19.219      41.597
  C       50.608      20.618      40.404
  O       51.709      19.730      40.268
  C       50.938      21.967      39.771
  O       52.041      22.596      40.454
  C       51.365      21.884      38.312
  O       50.259      21.780      37.430
  C       52.062      23.222      38.135
  O       51.086      24.262      37.931
  C       52.760      23.403      39.489
  N       57.525      24.943      40.197
  C       56.338      25.575      40.508
  N       56.437      26.817      41.027
  N       55.160      25.037      40.330
  C       55.216      23.792      39.795
  C       56.331      23.063      39.448
  C       57.626      23.675      39.640
  O       58.709      23.188      39.336
  N       55.988      21.837      38.945
  C       54.670      21.819      38.987
  N       54.154      22.999      39.454
  O       53.443      18.091      41.053
  O       53.160      20.266      42.384
  H       51.577      25.048      37.619
  H       54.284      18.496      40.769
  H       58.409      25.402      40.349
  H       54.052      20.987      38.676
  H       52.717      24.440      39.835
  H       52.732      23.242      37.271
  H       57.311      27.311      41.130
  H       52.088      21.074      38.154
  H       55.581      27.329      41.205
  H       50.059      22.616      39.878
  H       50.385      20.755      41.464
  H       49.729      20.178      39.921
  P       50.556      21.194      35.965
  C       50.424      18.807      36.980
  O       51.162      19.732      36.207
  O       51.812      22.057      35.479
  O       49.405      21.284      35.019
  H       51.836      22.104      34.505
  H       50.839      17.807      36.823
  H       49.372      18.797      36.683
  H       50.506      19.059      38.040
  H       50.264      16.667      42.584
  H       51.859      16.478      41.897
  H       50.582      17.206      40.952

 3  4  5  6  7  8  9  10  11  12  23  26  30  31 0
 6-311+G(2d,p)
 ****
 33  35  36  37  38 0
 6-311+G(2d,p)
 ****
 1  2  13  14  15  16  17  18  19  20  21  22  24  25 0
 3-21G
 ****
 27  28  29  32  34  39  40  41  42  43  44  45  46  47  48  49 0
 3-21G
 ****


