%nproc=1
%NoSave
%Mem=1900MB
#P OB98/GEN NMR

erre ene a

0 1
  C      142.254     258.740    -308.009
  O      142.199     258.997    -306.603
  P      141.502     257.889    -305.677
  C      143.156     255.879    -305.662
  O      142.646     257.016    -304.975
  C      143.424     254.741    -304.677
  O      143.461     253.465    -305.344
  C      144.766     254.862    -303.972
  O      144.700     255.823    -302.936
  C      144.996     253.437    -303.478
  O      144.447     253.234    -302.166
  C      144.245     252.579    -304.526
  N      145.142     251.769    -305.330
  C      144.597     250.596    -305.863
  O      143.430     250.288    -305.620
  N      145.399     249.792    -306.632
  C      146.640     250.117    -306.833
  N      147.384     249.276    -307.599
  C      147.262     251.332    -306.266
  C      146.463     252.105    -305.532
  O      140.859     256.876    -306.738
  O      140.468     258.440    -304.748
  H      143.479     253.344    -302.265
  H      140.036     256.494    -306.384
  H      148.299     251.558    -306.454
  H      146.832     253.017    -305.077
  H      143.538     251.906    -304.026
  H      146.063     253.205    -303.413
  H      145.543     255.133    -304.698
  H      142.611     254.725    -303.933
  H      146.928     248.449    -307.969
  H      144.076     256.138    -306.190
  H      148.360     249.427    -307.814
  H      142.430     255.572    -306.425
  P      145.742     257.036    -302.978
  C      144.990     258.787    -304.701
  O      144.867     258.322    -303.371
  O      146.536     256.750    -304.344
  O      146.667     257.190    -301.819
  H      147.272     257.378    -304.439
  H      144.201     259.519    -304.891
  H      144.881     257.961    -305.410
  H      145.960     259.271    -304.837
  H      142.742     259.555    -308.502
  H      141.260     258.635    -308.392
  H      142.801     257.838    -308.186

 3  4  5  6  7  8  9  10  11  12  13  21  23  27  28  29  30  32 0
 6-311+G(2d,p)
 ****
 34  35 0
 6-311+G(2d,p)
 ****
 1  2  14  15  16  17  18  19  20  22  24  25  26 0
 3-21G
 ****
 31  33  36  37  38  39  40  41  42  43  44  45  46 0
 3-21G
 ****


