%nproc=1
%NoSave
%Mem=1900MB
#P OB98/GEN NMR

erre ene a

0 1
  C     -386.992    -632.888    1148.011
  O     -387.565    -634.075    1147.506
  P     -389.005    -634.077    1146.802
  C     -388.067    -634.109    1144.402
  O     -388.766    -634.835    1145.401
  C     -387.327    -635.057    1143.459
  O     -386.289    -635.720    1144.209
  C     -388.170    -636.178    1142.841
  O     -388.881    -635.803    1141.652
  C     -387.085    -637.183    1142.483
  O     -386.439    -636.762    1141.259
  C     -386.131    -637.043    1143.659
  N     -385.014    -641.799    1145.236
  C     -384.574    -641.069    1144.177
  N     -384.924    -639.810    1143.830
  C     -385.807    -639.286    1144.682
  C     -386.323    -639.925    1145.817
  C     -385.898    -641.231    1146.090
  N     -386.336    -641.957    1147.167
  N     -387.226    -639.074    1146.478
  C     -387.207    -637.970    1145.769
  N     -386.344    -638.046    1144.683
  O     -389.653    -632.739    1146.720
  O     -389.853    -635.133    1147.649
  H     -387.023    -637.007    1140.515
  H     -390.800    -635.020    1147.456
  H     -383.848    -641.542    1143.539
  H     -387.791    -637.089    1145.981
  H     -385.043    -637.126    1143.357
  H     -387.479    -638.167    1142.287
  H     -388.840    -636.625    1143.578
  H     -386.825    -634.440    1142.663
  H     -387.341    -633.446    1144.881
  H     -385.863    -642.871    1147.373
  H     -386.873    -641.495    1147.891
  H     -388.776    -633.461    1143.852
  P     -390.365    -636.378    1141.488
  C     -391.486    -634.523    1142.979
  O     -391.338    -635.126    1141.707
  O     -390.668    -637.558    1142.333
  O     -390.467    -636.648    1139.912
  H     -390.436    -635.844    1139.339
  H     -392.055    -633.630    1142.881
  H     -390.512    -634.281    1143.407
  H     -392.027    -635.209    1143.657
  H     -386.035    -633.107    1148.437
  H     -387.631    -632.475    1148.763
  H     -386.875    -632.182    1147.216

 3  4  5  6  7  8  9  10  11  12  22  25  29  30  31  32 0
 6-311+G(2d,p)
 ****
 33  36  37 0
 6-311+G(2d,p)
 ****
 1  2  13  14  15  16  17  18  19  20  21  23  24  26 0
 3-21G
 ****
 27  28  34  35  38  39  40  41  42  43  44  45  46  47  48 0
 3-21G
 ****


