%nproc=1
%NoSave
%Mem=1900MB
#P OB98/GEN NMR

erre ene a

0 1
  C       -0.372    -227.766     -33.473
  O        0.462    -228.863     -33.790
  H       -0.444    -227.087     -34.326
  H       -1.373    -228.140     -33.237
  H        0.021    -227.232     -32.603
  P        1.974    -228.525     -34.204
  C        1.310    -227.830     -36.622
  O        2.031    -228.733     -35.795
  C        1.889    -227.866     -38.031
  O        1.064    -227.086     -38.928
  C        3.291    -227.272     -38.136
  O        4.301    -228.192     -37.757
  C        3.356    -226.961     -39.621
  O        3.587    -228.173     -40.362
  C        1.938    -226.433     -39.890
  N        3.401    -221.885     -41.729
  C        3.653    -223.148     -42.140
  N        3.208    -224.304     -41.608
  C        2.418    -224.069     -40.548
  C        2.068    -222.837     -40.018
  C        2.603    -221.704     -40.652
  N        2.376    -220.416     -40.218
  N        1.255    -223.000     -38.911
  C        1.105    -224.304     -38.793
  N        1.815    -224.993     -39.739
  O        2.811    -229.772     -33.648
  O        2.502    -227.210     -33.733
  H        2.848    -228.777     -40.159
  H        3.765    -229.568     -33.646
  H        4.298    -223.240     -43.008
  H        0.507    -224.795     -38.036
  H        1.577    -226.687     -40.894
  H        4.166    -226.272     -39.873
  H        3.373    -226.337     -37.571
  H        1.875    -228.905     -38.385
  H        1.400    -226.820     -36.212
  H        2.920    -219.683     -40.644
  H        1.905    -220.278     -39.334
  H        0.254    -228.119     -36.641
  P        5.469    -227.654     -36.794
  C        7.069    -227.737     -38.839
  O        6.856    -228.087     -37.476
  O        5.362    -228.624     -35.527
  O        5.349    -226.213     -36.416
  H        5.616    -228.157     -34.708
  H        8.030    -228.090     -39.152
  H        7.028    -226.673     -38.945
  H        6.310    -228.185     -39.445

 6  7  8  9  10  11  12  13  14  15  25  28  32  33  34  35 0
 6-311+G(2d,p)
 ****
 36  39  40 0
 6-311+G(2d,p)
 ****
 1  2  3  4  5  16  17  18  19  20  21  22  23  24 0
 3-21G
 ****
 26  27  29  30  31  37  38  41  42  43  44  45  46  47 0
 3-21G
 ****
 48 0
 3-21G
 ****


