%nproc=1
%NoSave
%Mem=1900MB
#P OB98/GEN NMR

erre ene a

0 1
  C       74.203    -123.857     -49.531
  O       73.116    -123.988     -48.630
  P       73.360    -124.322     -47.081
  C       73.308    -121.955     -46.079
  O       72.589    -123.165     -46.282
  C       72.393    -120.756     -46.310
  O       71.881    -120.827     -47.662
  C       71.157    -120.678     -45.417
  O       71.381    -120.082     -44.148
  C       70.264    -119.765     -46.249
  O       70.679    -118.397     -46.083
  C       70.557    -120.239     -47.674
  N       66.461    -121.000     -50.644
  C       67.219    -119.904     -50.410
  N       68.283    -119.777     -49.590
  C       68.572    -120.951     -49.007
  C       67.897    -122.152     -49.150
  C       66.790    -122.152     -50.017
  N       66.035    -123.276     -50.270
  N       68.479    -123.135     -48.373
  C       69.494    -122.537     -47.786
  N       69.597    -121.221     -48.143
  O       74.787    -124.528     -46.710
  O       72.455    -125.611     -46.808
  H       70.536    -118.169     -45.145
  H       72.734    -126.045     -45.978
  H       66.929    -119.007     -50.951
  H       70.174    -123.014     -47.096
  H       70.574    -119.415     -48.397
  H       69.212    -119.817     -45.956
  H       70.674    -121.657     -45.316
  H       72.994    -119.843     -46.225
  H       74.134    -121.922     -46.799
  H       65.345    -123.214     -51.002
  H       66.376    -124.165     -49.933
  H       73.730    -121.942     -45.072
  P       70.291    -120.369     -43.000
  C       71.677    -122.341     -41.982
  O       71.097    -121.067     -41.804
  O       69.078    -121.094     -43.466
  O       69.983    -118.905     -42.432
  H       70.718    -118.479     -41.964
  H       72.309    -122.563     -41.118
  H       72.296    -122.366     -42.881
  H       70.895    -123.103     -42.050
  H       73.831    -123.635     -50.509
  H       74.755    -124.773     -49.559
  H       74.843    -123.064     -49.205

 3  4  5  6  7  8  9  10  11  12  22  25  29  30  31  32 0
 6-311+G(2d,p)
 ****
 33  36  37 0
 6-311+G(2d,p)
 ****
 1  2  13  14  15  16  17  18  19  20  21  23  24  26 0
 3-21G
 ****
 27  28  34  35  38  39  40  41  42  43  44  45  46  47  48 0
 3-21G
 ****


