%nproc=1
%NoSave
%Mem=1900MB
#P OB98/GEN NMR

erre ene a

0 1
  C      103.145     -34.734    -265.082
  O      103.496     -33.416    -265.453
  P      103.848     -32.304    -264.355
  C      101.503     -31.235    -264.380
  O      102.465     -31.943    -263.611
  C      100.640     -30.349    -263.470
  O       99.624     -31.182    -262.834
  C      101.451     -29.662    -262.354
  O      101.280     -28.246    -262.274
  C      101.045     -30.441    -261.113
  O      101.268     -29.748    -259.898
  C       99.591     -30.807    -261.443
  N       99.077     -31.874    -260.589
  C       97.772     -31.736    -260.114
  O       97.032     -30.791    -260.377
  N       97.339     -32.707    -259.258
  C       98.097     -33.721    -258.744
  O       97.676     -34.499    -257.906
  C       99.479     -33.796    -259.248
  C       99.891     -32.896    -260.147
  O      104.599     -31.125    -264.858
  O      104.619     -33.144    -263.226
  H      100.741     -28.925    -259.922
  H      104.104     -33.865    -262.827
  H       96.396     -32.623    -258.909
  H      100.106     -34.579    -258.850
  H      100.908     -32.927    -260.537
  H       98.932     -29.944    -261.353
  H      101.653     -31.358    -261.073
  H      102.534     -29.784    -262.518
  H      100.138     -29.607    -264.105
  H      100.857     -31.956    -264.894
  H      102.003     -30.636    -265.150
  P      102.452     -27.165    -262.375
  C      102.217     -26.250    -259.946
  O      103.025     -26.917    -260.897
  O      102.128     -25.933    -263.134
  O      103.645     -27.967    -263.086
  H      104.200     -27.351    -263.592
  H      102.868     -25.730    -259.236
  H      101.617     -26.986    -259.402
  H      101.558     -25.519    -260.421
  H      102.950     -35.312    -265.961
  H      102.268     -34.710    -264.469
  H      103.951     -35.177    -264.535

 3  4  5  6  7  8  9  10  11  12  13  23  28  29  30  31  32 0
 6-311+G(2d,p)
 ****
 33  34 0
 6-311+G(2d,p)
 ****
 1  2  14  15  16  17  18  19  20  21  22  24  25  26  27 0
 3-21G
 ****
 35  36  37  38  39  40  41  42  43  44  45 0
 3-21G
 ****


