%nproc=1
%NoSave
%Mem=1900MB
#P OB98/GEN NMR

erre ene a

0 1
  C       38.367     578.604     164.774
  O       39.438     578.834     163.844
  P       40.761     577.925     163.876
  C       42.217     578.583     165.872
  O       41.204     577.692     165.401
  C       42.982     578.040     167.089
  O       43.573     576.749     166.816
  C       44.107     578.951     167.604
  O       44.139     578.766     169.018
  C       45.339     578.343     166.951
  O       46.552     578.736     167.593
  C       44.998     576.850     167.030
  N       45.752     576.068     166.051
  C       46.611     575.082     166.557
  O       46.769     574.956     167.773
  N       47.319     574.313     165.677
  C       47.248     574.559     164.409
  N       48.002     573.777     163.581
  C       46.420     575.633     163.829
  C       45.699     576.321     164.701
  O       41.855     578.390     162.973
  O       40.235     576.471     163.429
  H       47.301     578.341     167.098
  H       40.955     575.999     162.967
  H       46.405     575.821     162.768
  H       45.041     577.138     164.382
  H       45.208     576.454     168.034
  H       45.400     578.671     165.895
  H       43.976     580.008     167.349
  H       42.241     577.878     167.890
  H       48.583     573.061     164.015
  H       41.753     579.538     166.141
  H       48.108     573.949     162.592
  H       42.919     578.782     165.056
  P       43.708     579.920     170.048
  C       45.974     580.404     171.175
  O       44.997     580.860     170.256
  O       43.084     579.445     171.312
  O       42.691     580.848     169.210
  H       42.187     581.400     169.837
  H       46.875     580.997     171.072
  H       46.220     579.343     170.986
  H       45.587     580.486     172.188
  H       37.581     579.307     164.594
  H       38.730     578.724     165.773
  H       37.992     577.610     164.648

 3  4  5  6  7  8  9  10  11  12  13  23  27  28  29  30  32 0
 6-311+G(2d,p)
 ****
 34  35 0
 6-311+G(2d,p)
 ****
 1  2  14  15  16  17  18  19  20  21  22  24  25  26 0
 3-21G
 ****
 31  33  36  37  38  39  40  41  42  43  44  45  46 0
 3-21G
 ****


