%nproc=1
%NoSave
%Mem=1900MB
#P OB98/GEN NMR

erre ene a

0 1
  C       -5.503     -30.627      21.450
  O       -6.287     -30.636      20.278
  H       -6.077     -31.087      22.258
  H       -5.270     -29.596      21.728
  H       -4.575     -31.188      21.315
  P       -5.561     -30.453      18.865
  C       -3.830     -28.710      18.073
  O       -5.059     -28.932      18.753
  C       -3.484     -27.223      18.000
  O       -3.340     -26.693      19.335
  C       -2.161     -26.963      17.275
  O       -2.276     -26.840      15.868
  C       -1.711     -25.648      17.905
  O       -2.249     -24.518      17.197
  C       -2.288     -25.717      19.323
  N       -0.328     -24.761      23.947
  C       -1.274     -24.041      23.241
  N       -1.718     -22.911      23.831
  N       -1.718     -24.398      22.065
  C       -1.108     -25.495      21.561
  C       -0.145     -26.277      22.158
  C        0.288     -25.918      23.491
  O        1.110     -26.530      24.165
  N        0.271     -27.289      21.326
  C       -0.377     -27.062      20.201
  N       -1.283     -26.035      20.321
  O       -6.774     -30.495      17.815
  O       -4.536     -31.493      18.527
  H       -1.753     -24.422      16.361
  H       -6.465     -30.878      16.975
  H       -0.046     -24.454      24.859
  H       -0.264     -27.636      19.288
  H       -2.738     -24.761      19.618
  H       -0.623     -25.551      17.870
  H       -1.348     -22.546      24.693
  H       -1.424     -27.731      17.527
  H       -2.267     -22.258      23.268
  H       -4.314     -26.682      17.528
  H       -3.955     -29.115      17.067
  H       -3.023     -29.269      18.555
  P       -1.113     -27.357      14.902
  C        1.416     -26.706      14.637
  O        0.101     -26.326      14.979
  O       -1.719     -27.106      13.442
  O       -0.698     -28.777      15.099
  H       -2.091     -27.930      13.078
  H        2.072     -25.869      14.758
  H        1.439     -27.033      13.618
  H        1.734     -27.504      15.275

 6  7  8  9  10  11  12  13  14  15  26  29  33  34 0
 6-311+G(2d,p)
 ****
 36  38  39  40  41 0
 6-311+G(2d,p)
 ****
 1  2  3  4  5  16  17  18  19  20  21  22  23  24  25 0
 3-21G
 ****
 27  28  30  31  32  35  37  42  43  44  45  46  47 0
 3-21G
 ****
 48  49 0
 3-21G
 ****


