%nproc=1
%NoSave
%Mem=1900MB
#P OB98/GEN NMR

erre ene a

0 1
  C       42.552     201.251      60.812
  O       43.694     201.541      60.023
  H       42.257     200.213      60.637
  H       41.728     201.911      60.534
  H       42.790     201.376      61.875
  P       44.308     203.015      60.175
  C       42.809     203.952      58.255
  O       43.184     204.022      59.624
  C       41.584     204.835      57.999
  O       41.452     205.036      56.556
  C       40.262     204.217      58.487
  O       39.364     205.283      58.853
  C       39.746     203.544      57.224
  O       38.380     203.239      57.346
  C       40.118     204.607      56.196
  N       37.184     203.974      52.074
  C       36.955     204.581      53.260
  N       37.795     204.712      54.303
  C       38.994     204.166      54.028
  C       39.372     203.516      52.862
  C       38.401     203.421      51.850
  N       38.623     202.788      50.653
  N       40.678     203.066      52.967
  C       41.077     203.442      54.166
  N       40.090     204.111      54.838
  O       45.441     203.055      59.041
  O       44.852     203.353      61.519
  H       38.008     202.935      56.492
  H       46.300     202.790      59.418
  H       35.965     205.012      53.383
  H       42.052     203.255      54.595
  H       39.457     205.486      56.245
  H       40.279     202.604      57.033
  H       40.387     203.534      59.333
  H       41.748     205.825      58.440
  H       42.577     202.907      58.010
  H       43.643     204.294      57.631
  H       37.863     202.738      49.990
  H       39.512     202.340      50.489
  P       38.749     205.307      60.340
  C       36.333     204.396      59.952
  O       37.627     204.173      60.498
  O       37.879     206.651      60.313
  O       39.754     205.362      61.445
  H       38.043     207.166      61.128
  H       35.713     203.546      60.146
  H       36.413     204.546      58.896
  H       35.900     205.264      60.404

 6  7  8  9  10  11  12  13  14  15  25  28  32  33  34  35 0
 6-311+G(2d,p)
 ****
 36  37  40 0
 6-311+G(2d,p)
 ****
 1  2  3  4  5  16  17  18  19  20  21  22  23  24 0
 3-21G
 ****
 26  27  29  30  31  38  39 41  42  43  44  45  46  47  48 0
 3-21G
 ****


