%nproc=1
%NoSave
%Mem=1900MB
#P OB98/GEN NMR

erre ene a

0 1
  C      100.501     131.158     -59.863
  O       99.656     130.087     -60.245
  P       99.727     129.595     -61.772
  C       97.893     129.079     -63.538
  O       98.269     129.840     -62.396
  C       96.389     128.800     -63.550
  O       96.075     127.874     -62.481
  C       95.521     130.046     -63.369
  O       94.360     129.894     -64.187
  C       95.107     129.979     -61.911
  O       93.896     130.693     -61.673
  C       95.018     128.460     -61.694
  N       95.136     128.097     -60.286
  C       93.945     127.957     -59.567
  O       92.868     128.215     -60.105
  N       94.007     127.581     -58.249
  C       95.161     127.461     -57.670
  N       95.170     127.083     -56.364
  C       96.439     127.720     -58.360
  C       96.355     128.009     -59.657
  O       99.807     128.004     -61.632
  O      100.871     130.154     -62.553
  H       93.830     130.867     -60.708
  H      100.332     127.617     -62.358
  H       97.373     127.642     -57.820
  H       97.242     128.193     -60.248
  H       94.065     128.072     -62.075
  H       95.894     130.412     -61.280
  H       96.043     130.970     -63.635
  H       96.142     128.300     -64.494
  H       94.280     126.926     -55.909
  H       98.418     128.120     -63.515
  H       96.021     126.965     -55.831
  H       98.195     129.612     -64.444
  P       93.632     131.227     -64.701
  C       91.312     132.160     -64.124
  O       92.462     131.496     -63.640
  O       92.803     130.672     -65.958
  O       94.480     132.393     -65.086
  H       92.356     131.411     -66.408
  H       90.549     132.154     -63.342
  H       90.918     131.650     -65.006
  H       91.558     133.198     -64.368
  H      100.350     131.379     -58.827
  H      100.269     132.022     -60.450
  H      101.522     130.882     -60.024

 3  4  5  6  7  8  9  10  11  12  13  21  23  27  28  29  30  32 0
 6-311+G(2d,p)
 ****
 34  35 0
 6-311+G(2d,p)
 ****
 1  2  14  15  16  17  18  19  20  22  24  25  26 0
 3-21G
 ****
 31  33  36  37  38  39  40  41  42  43  44  45  46 0
 3-21G
 ****


