%nproc=1
%NoSave
%Mem=1900MB
#P OB98/GEN NMR

erre ene a

0 1
  C     -472.807    -231.788     905.766
  O     -473.908    -231.283     906.499
  H     -472.610    -231.119     904.921
  H     -473.026    -232.788     905.383
  H     -471.919    -231.821     906.402
  P     -474.423    -232.188     907.726
  C     -474.858    -234.302     906.252
  O     -475.418    -233.240     907.026
  C     -475.789    -235.507     906.279
  O     -475.811    -236.107     907.599
  C     -477.253    -235.196     905.960
  O     -477.492    -235.008     904.571
  C     -477.913    -236.456     906.492
  O     -477.673    -237.548     905.581
  C     -477.144    -236.648     907.819
  N     -477.798    -235.994     908.956
  C     -478.774    -236.718     909.636
  O     -479.070    -237.863     909.274
  N     -479.431    -236.134     910.683
  C     -479.117    -234.925     911.053
  N     -479.803    -234.400     912.104
  C     -478.075    -234.119     910.386
  C     -477.458    -234.718     909.357
  O     -475.437    -231.215     908.498
  O     -473.365    -232.795     908.580
  H     -478.128    -237.316     904.752
  H     -475.926    -231.721     909.191
  H     -477.862    -233.121     910.717
  H     -476.681    -234.188     908.812
  H     -477.026    -237.718     908.055
  H     -478.989    -236.358     906.597
  H     -477.610    -234.333     906.531
  H     -475.377    -236.264     905.585
  H     -480.544    -234.946     912.515
  H     -473.889    -234.566     906.690
  H     -479.738    -233.423     912.368
  H     -474.715    -233.979     905.215
  P     -478.235    -233.656     904.125
  C     -480.640    -234.628     904.407
  O     -479.664    -234.092     903.523
  O     -477.410    -233.204     902.832
  O     -478.281    -232.590     905.171
  H     -477.368    -232.230     902.782
  H     -481.527    -234.866     903.857
  H     -480.872    -233.906     905.162
  H     -480.256    -235.515     904.867

 6  7  8  9  10  11  12  13  14  15  16  26  30  31  32  33  35 0
 6-311+G(2d,p)
 ****
 37  38 0
 6-311+G(2d,p)
 ****
 1  2  3  4  5  17  18  19  20  21  22  23  24  25 0
 3-21G
 ****
 27  28  29  34  36  39  40  41  42  43  44  45  46 0
 3-21G
 ****


