%nproc=1
%NoSave
%Mem=1900MB
#P OB98/GEN NMR

erre ene a

0 1
  C     -327.629    -356.930     247.486
  O     -328.611    -357.181     246.485
  P     -328.135    -357.865     245.115
  C     -326.386    -356.048     244.512
  O     -327.602    -356.688     244.156
  C     -326.430    -354.559     244.165
  O     -325.170    -353.948     244.572
  C     -326.624    -354.252     242.676
  O     -327.378    -353.037     242.584
  C     -325.205    -353.995     242.188
  O     -325.182    -353.242     240.981
  C     -324.626    -353.279     243.407
  N     -320.322    -351.040     241.783
  C     -321.622    -350.726     241.603
  N     -322.714    -351.372     242.066
  C     -322.359    -352.450     242.784
  C     -321.076    -352.912     243.025
  C     -320.019    -352.159     242.491
  N     -318.694    -352.471     242.684
  N     -321.114    -354.073     243.789
  C     -322.393    -354.296     244.001
  N     -323.178    -353.330     243.434
  O     -329.523    -358.302     244.440
  O     -327.217    -359.033     245.267
  H     -325.684    -352.416     241.129
  H     -329.597    -359.274     244.433
  H     -321.814    -349.832     241.005
  H     -322.794    -355.136     244.545
  H     -324.929    -352.225     243.452
  H     -324.700    -354.950     242.010
  H     -327.118    -355.053     242.115
  H     -327.219    -354.089     244.763
  H     -325.571    -356.513     243.949
  H     -317.997    -351.807     242.384
  H     -318.453    -353.190     243.366
  H     -326.195    -356.187     245.580
  P     -328.934    -353.170     242.226
  C     -328.502    -352.281     239.824
  O     -329.227    -352.142     241.035
  O     -329.664    -352.515     243.490
  O     -329.386    -354.581     241.997
  H     -330.547    -352.909     243.603
  H     -329.137    -351.977     238.992
  H     -328.175    -353.312     239.662
  H     -327.621    -351.629     239.859
  H     -328.094    -356.474     248.335
  H     -326.880    -356.274     247.094
  H     -327.176    -357.853     247.780

 3  4  5  6  7  8  9  10  11  12  22  25  29  30  31  32 0
 6-311+G(2d,p)
 ****
 33  36  37 0
 6-311+G(2d,p)
 ****
 1  2  13  14  15  16  17  18  19  20  21  23  24  26 0
 3-21G
 ****
 27  28  34  35  38  39  40  41  42  43  44  45  46  47  48 0
 3-21G
 ****


