%nproc=1
%NoSave
%Mem=1900MB
#P OB98/GEN NMR

erre ene a

0 1
  C     -390.375     493.797     616.511
  O     -390.607     494.211     617.846
  H     -391.139     493.061     616.242
  H     -389.386     493.334     616.413
  H     -390.460     494.650     615.837
  P     -389.467     495.085     618.576
  C     -390.726     496.770     620.078
  O     -390.085     495.491     620.000
  C     -391.697     496.837     621.255
  O     -392.709     495.811     621.144
  C     -391.038     496.606     622.611
  O     -390.134     497.606     623.016
  C     -392.255     496.289     623.486
  O     -392.915     497.472     623.940
  C     -393.159     495.528     622.487
  N     -393.188     494.093     622.743
  C     -393.993     493.677     623.805
  O     -394.632     494.449     624.510
  N     -394.009     492.329     624.052
  C     -393.267     491.377     623.378
  O     -393.317     490.194     623.672
  C     -392.411     491.886     622.309
  C     -392.403     493.196     622.031
  O     -388.932     496.243     617.784
  O     -388.345     494.003     618.963
  H     -393.659     497.174     624.511
  H     -387.493     494.441     619.192
  H     -394.597     492.007     624.796
  H     -391.807     491.161     621.762
  H     -391.780     493.592     621.245
  H     -394.202     495.896     622.552
  H     -391.980     495.709     624.359
  H     -390.454     495.672     622.550
  H     -392.201     497.817     621.228
  H     -391.277     496.919     619.141
  H     -389.963     497.556     620.157
  P     -388.652     497.304     623.537
  C     -387.480     498.797     621.735
  O     -387.702     498.525     623.105
  O     -388.151     495.914     623.314
  O     -388.810     497.525     625.128
  H     -388.206     496.884     625.567
  H     -386.827     499.639     621.640
  H     -388.413     499.014     621.259
  H     -387.032     497.944     621.270

 6  7  8  9  10  11  12  13  14  15  16  26  31  32  33  34  35 0
 6-311+G(2d,p)
 ****
 36  37 0
 6-311+G(2d,p)
 ****
 1  2  3  4  5  17  18  19  20  21  22  23  24  25 0
 3-21G
 ****
 27  28  29  30  38  39  40  41  42  43  44  45 0
 3-21G
 ****


