%nproc=1
%NoSave
%Mem=1900MB
#P OB98/GEN NMR

erre ene a

0 1
  C      147.164    -927.994     879.578
  O      145.954    -928.432     879.016
  H      147.641    -928.831     880.096
  H      146.978    -927.197     880.301
  H      147.847    -927.634     878.803
  P      145.157    -927.406     878.067
  C      145.214    -929.000     876.013
  O      145.605    -927.740     876.550
  C      145.982    -929.273     874.718
  O      147.397    -929.427     875.023
  C      145.522    -930.552     873.989
  O      145.548    -930.305     872.580
  C      146.590    -931.574     874.350
  O      146.690    -932.630     873.392
  C      147.829    -930.688     874.486
  N      148.837    -931.317     875.334
  C      150.178    -930.936     875.124
  O      150.453    -930.119     874.255
  N      151.164    -931.527     875.876
  C      150.855    -932.491     876.694
  N      151.883    -933.072     877.372
  C      149.474    -932.976     876.892
  C      148.524    -932.348     876.203
  O      145.874    -926.007     878.348
  O      143.680    -927.348     878.281
  H      146.850    -932.222     872.506
  H      145.254    -925.263     878.262
  H      149.269    -933.799     877.564
  H      147.482    -932.635     876.281
  H      148.271    -930.494     873.507
  H      146.332    -932.037     875.320
  H      144.510    -930.870     874.283
  H      145.884    -928.397     874.058
  H      152.822    -932.729     877.203
  H      144.138    -928.980     875.783
  H      151.767    -933.862     878.010
  H      145.405    -929.792     876.753
  P      144.205    -929.746     871.908
  C      145.052    -927.300     871.628
  O      144.103    -928.177     872.216
  O      143.055    -930.396     872.809
  O      144.053    -930.121     870.458
  H      142.583    -931.090     872.318
  H      144.845    -926.295     871.932
  H      144.990    -927.370     870.562
  H      146.036    -927.574     871.947

 6  7  8  9  10  11  12  13  14  15  16  26  30  31  32  33  35 0
 6-311+G(2d,p)
 ****
 37  38 0
 6-311+G(2d,p)
 ****
 1  2  3  4  5  17  18  19  20  21  22  23  24  25 0
 3-21G
 ****
 27  28  29  34  36  39  40  41  42  43  44  45  46 0
 3-21G
 ****


