%nproc=1
%NoSave
%Mem=1900MB
#P OB98/GEN NMR

erre ene a

0 1
  C      148.993     674.261    -229.533
  O      149.122     673.467    -230.700
  H      148.441     673.709    -228.764
  H      149.993     674.498    -229.152
  H      148.472     675.193    -229.768
  P      147.767     673.015    -231.428
  C      148.521     673.032    -233.915
  O      147.806     673.698    -232.881
  C      148.582     673.934    -235.149
  O      149.436     675.072    -234.892
  C      149.156     673.260    -236.388
  O      148.196     672.459    -237.064
  C      149.544     674.474    -237.221
  O      148.369     675.046    -237.825
  C      150.100     675.421    -236.143
  N      154.656     677.313    -237.522
  C      153.394     677.627    -237.900
  N      152.237     677.069    -237.488
  C      152.465     676.094    -236.593
  C      153.694     675.655    -236.123
  C      154.832     676.321    -236.622
  N      156.126     675.985    -236.249
  N      153.530     674.604    -235.238
  C      152.232     674.435    -235.159
  N      151.543     675.303    -235.960
  O      146.633     673.859    -230.662
  O      147.488     671.551    -231.432
  H      148.033     674.390    -238.466
  H      145.764     673.431    -230.789
  H      153.306     678.426    -238.632
  H      151.738     673.703    -234.526
  H      149.878     676.474    -236.352
  H      150.241     674.242    -238.025
  H      150.070     672.684    -236.156
  H      147.566     674.317    -235.347
  H      148.010     672.099    -234.172
  H      156.865     676.397    -236.802
  H      156.267     675.154    -235.706
  H      149.531     672.804    -233.559
  P      148.299     670.869    -236.878
  C      145.766     670.944    -236.234
  O      147.080     670.464    -235.910
  O      149.579     670.689    -235.952
  O      148.394     670.096    -238.153
  H      149.991     669.811    -236.085
  H      145.068     670.594    -235.503
  H      145.482     670.582    -237.200
  H      145.769     672.014    -236.240

 6  7  8  9  10  11  12  13  14  15  25  28  32  33  34  35 0
 6-311+G(2d,p)
 ****
 36  39  40 0
 6-311+G(2d,p)
 ****
 1  2  3  4  5  16  17  18  19  20  21  22  23  24 0
 3-21G
 ****
 26  27  29  30  31  37  38  41  42  43  44  45  46  47 0
 3-21G
 ****
 48 0
 3-21G
 ****


