%nproc=1
%NoSave
%Mem=1900MB
#P OB98/GEN NMR

erre ene a

0 1
  C        7.368      -9.510      41.433
  O        6.074      -9.476      42.009
  P        5.095      -8.289      41.549
  C        4.273      -7.969      43.998
  O        4.838      -7.372      42.837
  C        5.009      -7.488      45.247
  O        6.433      -7.557      45.041
  C        4.724      -6.043      45.632
  O        3.450      -5.916      46.242
  C        5.904      -5.763      46.557
  O        5.659      -6.329      47.854
  C        7.044      -6.521      45.856
  N       10.758      -2.998      45.788
  C       10.141      -3.639      46.806
  N        9.146      -4.547      46.745
  C        8.798      -4.785      45.471
  C        9.320      -4.193      44.334
  C       10.351      -3.261      44.524
  N       10.974      -2.606      43.483
  N        8.695      -4.670      43.202
  C        7.817      -5.545      43.647
  N        7.851      -5.660      45.010
  O        3.696      -9.031      41.337
  O        5.531      -7.554      40.320
  H        6.439      -6.129      48.409
  H        3.192      -8.625      40.605
  H       10.496      -3.389      47.802
  H        7.143      -6.119      43.026
  H        7.719      -7.013      46.565
  H        6.098      -4.694      46.695
  H        4.778      -5.393      44.750
  H        4.748      -8.161      46.074
  H        4.366      -9.057      43.932
  H       11.596      -1.848      43.716
  H       10.574      -2.698      42.559
  H        3.211      -7.714      44.047
  P        2.358      -5.017      45.484
  C        2.505      -3.301      47.389
  O        2.664      -3.527      46.000
  O        1.022      -5.394      46.275
  O        2.313      -5.197      44.006
  H        1.144      -5.349      47.240
  H        2.793      -2.271      47.611
  H        3.144      -3.981      47.960
  H        1.458      -3.444      47.675
  H        7.911     -10.345      41.824
  H        7.887      -8.605      41.669
  H        7.283      -9.606      40.371

 3  4  5  6  7  8  9  10  11  12  22  25  29  30  31  32 0
 6-311+G(2d,p)
 ****
 33  36  37 0
 6-311+G(2d,p)
 ****
 1  2  13  14  15  16  17  18  19  20  21  23  24  26 0
 3-21G
 ****
 27  28  34  35  38  39  40  41  42  43  44  45  46  47  48 0
 3-21G
 ****


