%nproc=1
%NoSave
%Mem=1900MB
#P OB98/GEN NMR

erre ene a

0 1
  C       22.873     -90.099      85.819
  O       22.379     -88.937      86.454
  H       23.922     -90.253      86.081
  H       22.293     -90.961      86.159
  H       22.769     -90.010      84.734
  P       23.121     -87.560      86.092
  C       21.545     -85.616      85.431
  O       22.112     -86.373      86.491
  C       20.281     -86.302      84.918
  O       19.381     -86.492      86.041
  C       19.531     -85.506      83.835
  O       19.242     -86.341      82.708
  C       18.223     -85.119      84.500
  O       17.125     -85.095      83.594
  C       18.062     -86.189      85.571
  N       13.753     -87.151      88.121
  C       14.531     -87.944      87.353
  N       15.718     -87.655      86.782
  C       16.105     -86.407      87.097
  C       15.431     -85.491      87.887
  C       14.187     -85.900      88.396
  N       13.367     -85.072      89.133
  N       16.138     -84.307      87.979
  C       17.200     -84.490      87.222
  N       17.216     -85.739      86.655
  O       23.106     -87.547      84.489
  O       24.507     -87.442      86.628
  H       17.173     -85.907      83.058
  H       24.027     -87.539      84.167
  H       14.147     -88.944      87.167
  H       17.958     -83.746      87.012
  H       17.630     -87.113      85.161
  H       18.330     -84.122      84.944
  H       20.086     -84.624      83.500
  H       20.548     -87.298      84.545
  H       22.265     -85.537      84.610
  H       12.444     -85.406      89.359
  H       13.636     -84.105      89.246
  H       21.313     -84.610      85.795
  P       20.193     -86.156      81.424
  C       19.541     -88.367      80.227
  O       19.526     -86.946      80.193
  O       21.480     -87.031      81.797
  O       20.560     -84.737      81.148
  H       22.283     -86.477      81.756
  H       19.065     -88.750      79.348
  H       19.016     -88.709      81.094
  H       20.553     -88.712      80.264

 6  7  8  9  10  11  12  13  14  15  25  28  32  33  34  35 0
 6-311+G(2d,p)
 ****
 36  39  40 0
 6-311+G(2d,p)
 ****
 1  2  3  4  5  16  17  18  19  20  21  22  23  24 0
 3-21G
 ****
 26  27  29  30  31  37  38  41  42  43  44  45  46  47  48 0
 3-21G
 ****


