%nproc=1
%NoSave
%Mem=1900MB
#P OB98/GEN NMR

erre ene a

0 1
  C       10.470    -212.174      -6.831
  O        9.512    -211.827      -5.853
  H       10.826    -213.188      -6.629
  H       11.319    -211.488      -6.778
  H       10.030    -212.148      -7.831
  P        8.712    -210.454      -6.084
  C        9.309    -208.416      -4.592
  O        9.707    -209.269      -5.654
  C        9.996    -208.831      -3.294
  O       11.341    -209.292      -3.562
  C       10.124    -207.712      -2.267
  O        8.932    -207.544      -1.513
  C       11.250    -208.256      -1.402
  O       10.739    -209.280      -0.524
  C       12.183    -208.873      -2.452
  N       17.068    -208.396      -3.730
  C       16.380    -209.493      -3.245
  N       17.099    -210.622      -3.066
  N       15.105    -209.484      -2.956
  C       14.516    -208.283      -3.174
  C       15.090    -207.125      -3.651
  C       16.498    -207.151      -3.974
  O       17.152    -206.215      -4.427
  N       14.171    -206.113      -3.747
  C       13.048    -206.649      -3.309
  N       13.206    -207.963      -2.942
  O        7.618    -210.461      -4.912
  O        8.071    -210.304      -7.422
  H       11.510    -209.677      -0.079
  H        6.796    -210.055      -5.246
  H       18.052    -208.453      -3.923
  H       12.099    -206.134      -3.242
  H       12.700    -209.766      -2.077
  H       11.705    -207.492      -0.769
  H       18.094    -210.682      -3.220
  H       10.446    -206.771      -2.733
  H       16.611    -211.448      -2.744
  H        9.437    -209.678      -2.874
  H        8.222    -208.483      -4.463
  H        9.574    -207.383      -4.847
  P        8.767    -206.186      -0.670
  C        8.721    -206.614       1.894
  O        9.518    -206.452       0.724
  O        7.218    -206.199      -0.265
  O        9.149    -204.943      -1.397
  H        6.915    -205.290      -0.079
  H        9.357    -206.783       2.738
  H        8.067    -207.451       1.767
  H        8.141    -205.730       2.056

 6  7  8  9  10  11  12  13  14  15  26  29  33  34 0
 6-311+G(2d,p)
 ****
 36  38  39  40  41 0
 6-311+G(2d,p)
 ****
 1  2  3  4  5  16  17  18  19  20  21  22  23  24  25 0
 3-21G
 ****
 27  28  30  31  32  35  37  42  43  44  45  46  47 0
 3-21G
 ****
 48  49 0
 3-21G
 ****


