%nproc=1
%NoSave
%Mem=1900MB
#P OB98/GEN NMR

erre ene a

0 1
  C      124.332     105.864      26.630
  O      123.497     106.378      27.649
  H      125.031     105.153      27.077
  H      124.905     106.672      26.169
  H      123.743     105.345      25.869
  P      122.277     107.332      27.239
  C      122.464     109.805      27.948
  O      122.882     108.800      27.032
  C      123.645     110.241      28.813
  O      124.843     110.332      28.012
  C      123.468     111.613      29.450
  O      122.587     111.556      30.554
  C      124.907     111.954      29.799
  O      125.305     111.312      31.021
  C      125.670     111.367      28.592
  N      126.027     112.378      27.598
  C      127.167     113.131      27.860
  O      127.842     113.003      28.881
  N      127.491     114.069      26.916
  C      126.745     114.395      25.822
  O      127.035     115.306      25.053
  C      125.538     113.584      25.609
  C      125.240     112.627      26.490
  O      121.077     107.261      28.122
  O      121.928     106.876      25.743
  H      124.798     111.744      31.736
  H      121.110     106.344      25.749
  H      128.307     114.634      27.095
  H      124.927     113.802      24.744
  H      124.352     112.023      26.353
  H      126.595     110.877      28.929
  H      125.057     113.025      29.937
  H      123.107     112.330      28.703
  H      123.809     109.473      29.581
  H      121.676     109.394      28.586
  H      122.060     110.654      27.384
  P      121.971     112.905      31.155
  C      122.909     113.633      33.435
  O      123.114     113.617      32.027
  O      120.655     112.757      31.841
  O      121.841     113.865      29.880
  H      120.904     114.107      29.753
  H      123.729     114.130      33.909
  H      122.843     112.628      33.797
  H      122.000     114.153      33.657

 6  7  8  9  10  11  12  13  14  15  16  26  31  32  33  34  35 0
 6-311+G(2d,p)
 ****
 36  37 0
 6-311+G(2d,p)
 ****
 1  2  3  4  5  17  18  19  20  21  22  23  24  25 0
 3-21G
 ****
 27  28  29  30  38  39  40  41  42  43  44  45 0
 3-21G
 ****


