%nproc=1
%NoSave
%Mem=1900MB
#P OB98/GEN NMR

erre ene a

0 1
  C      254.609     -43.177    -598.134
  O      254.496     -42.416    -596.946
  H      254.407     -44.225    -597.898
  H      255.612     -43.100    -598.556
  H      253.868     -42.838    -598.865
  P      254.993     -40.889    -596.977
  C      257.243     -40.329    -595.835
  O      256.600     -40.962    -596.943
  C      257.126     -41.184    -594.572
  O      257.491     -42.553    -594.862
  C      258.063     -40.754    -593.455
  O      257.730     -39.516    -592.868
  C      258.134     -42.006    -592.586
  O      257.077     -42.095    -591.632
  C      257.981     -43.134    -593.639
  N      259.233     -43.859    -593.846
  C      259.507     -44.865    -592.930
  O      258.772     -45.145    -591.985
  N      260.688     -45.535    -593.118
  C      261.617     -45.264    -594.073
  O      262.672     -45.871    -594.159
  C      261.283     -44.164    -594.997
  C      260.127     -43.522    -594.844
  O      254.406     -39.991    -595.932
  O      254.687     -40.423    -598.475
  H      256.242     -42.136    -592.136
  H      254.701     -39.436    -598.549
  H      260.894     -46.279    -592.470
  H      262.004     -43.919    -595.766
  H      259.856     -42.703    -595.512
  H      257.226     -43.859    -593.310
  H      259.074     -42.056    -592.034
  H      259.066     -40.626    -593.885
  H      256.079     -41.174    -594.242
  H      256.743     -39.371    -595.669
  H      258.296     -40.145    -596.078
  P      258.760     -38.646    -592.010
  C      258.261     -39.002    -589.485
  O      259.026     -39.404    -590.622
  O      258.536     -37.168    -591.992
  O      260.141     -38.914    -592.812
  H      260.666     -38.096    -592.758
  H      258.545     -39.591    -588.638
  H      257.220     -39.146    -589.687
  H      258.445     -37.968    -589.279

 6  7  8  9  10  11  12  13  14  15  16  26  31  32  33  34  35 0
 6-311+G(2d,p)
 ****
 36  37 0
 6-311+G(2d,p)
 ****
 1  2  3  4  5  17  18  19  20  21  22  23  24  25 0
 3-21G
 ****
 27  28  29  30  38  39  40  41  42  43  44  45 0
 3-21G
 ****


