%nproc=1
%NoSave
%Mem=1900MB
#P OB98/GEN NMR

erre ene a

0 1
  C      210.423      63.808     347.965
  O      209.630      62.654     348.188
  P      208.264      62.854     349.009
  C      209.024      61.260     350.939
  O      208.620      62.563     350.545
  C      209.057      61.166     352.468
  O      210.161      61.937     352.990
  C      207.810      61.697     353.154
  O      206.782      60.720     353.142
  C      208.335      62.020     354.546
  O      208.405      60.832     355.357
  C      209.740      62.562     354.235
  N      212.445      66.669     355.406
  C      212.584      65.361     355.835
  N      213.622      65.105     356.664
  N      211.777      64.392     355.483
  C      210.780      64.795     354.667
  C      210.529      66.061     354.179
  C      211.454      67.113     354.535
  O      211.433      68.260     354.108
  N      209.407      66.089     353.393
  C      208.998      64.836     353.375
  N      209.814      64.005     354.115
  O      207.383      61.592     348.564
  O      207.562      64.155     348.774
  H      208.926      61.020     356.158
  H      206.751      61.846     347.868
  H      213.104      67.369     355.695
  H      208.144      64.475     352.828
  H      210.474      62.270     355.003
  H      207.695      62.727     355.078
  H      214.267      65.804     356.993
  H      207.465      62.620     352.666
  H      213.733      64.155     356.989
  H      209.228      60.117     352.736
  H      210.024      61.058     350.543
  H      208.324      60.525     350.522
  P      205.272      61.221     353.373
  C      205.567      60.130     355.713
  O      204.997      61.177     354.950
  O      204.391      60.021     352.794
  O      204.943      62.516     352.700
  H      203.594      60.380     352.365
  H      205.750      60.490     356.730
  H      206.510      59.782     355.283
  H      204.861      59.293     355.754
  H      211.298      63.538     347.411
  H      210.712      64.229     348.905
  H      209.858      64.528     347.411

 3  4  5  6  7  8  9  10  11  12  23  26  30  31 0
 6-311+G(2d,p)
 ****
 33  35  36  37  38 0
 6-311+G(2d,p)
 ****
 1  2  13  14  15  16  17  18  19  20  21  22  24  25 0
 3-21G
 ****
 27  28  29  32  34  39  40  41  42  43  44  45  46  47  48  49 0
 3-21G
 ****


