%nproc=1
%NoSave
%Mem=1900MB
#P OB98/GEN NMR

erre ene a

0 1
  C     -899.150     -77.802     200.961
  O     -897.970     -77.607     201.713
  H     -899.350     -78.871     200.904
  H     -899.020     -77.419     199.944
  H     -900.000     -77.315     201.439
  P     -897.500     -76.104     202.039
  C     -897.140     -76.653     204.519
  O     -896.540     -76.197     203.324
  C     -896.190     -76.457     205.712
  O     -895.060     -77.353     205.568
  C     -895.630     -75.027     205.823
  O     -895.540     -74.680     207.209
  C     -894.230     -75.144     205.234
  O     -893.350     -74.159     205.755
  C     -893.860     -76.579     205.623
  N     -889.440     -79.017     205.429
  C     -890.220     -78.703     206.512
  N     -889.760     -79.053     207.737
  N     -891.380     -78.069     206.411
  C     -891.730     -77.793     205.136
  C     -891.020     -78.063     203.973
  C     -889.750     -78.737     204.108
  O     -889.000     -79.033     203.171
  N     -891.700     -77.587     202.872
  C     -892.800     -77.041     203.352
  N     -892.850     -77.125     204.728
  O     -898.590     -75.102     202.149
  O     -896.480     -75.756     200.853
  H     -892.430     -74.461     205.576
  H     -896.920     -75.207     200.168
  H     -888.560     -79.493     205.566
  H     -893.570     -76.561     202.771
  H     -893.440     -76.647     206.638
  H     -894.290     -75.032     204.138
  H     -888.900     -79.555     207.882
  H     -896.250     -74.284     205.296
  H     -890.340     -78.841     208.540
  H     -896.710     -76.747     206.636
  H     -897.360     -77.723     204.411
  H     -898.080     -76.101     204.694
  P     -896.840     -74.091     207.932
  C     -896.960     -75.974     209.700
  O     -896.810     -74.574     209.461
  O     -898.140     -74.288     207.220
  O     -896.480     -72.515     208.064
  H     -897.310     -72.014     208.049
  H     -896.922     -76.162     210.753
  H     -896.169     -76.506     209.214
  H     -897.901     -76.303     209.312

 6  7  8  9  10  11  12  13  14  15  26  29  33  34 0
 6-311+G(2d,p)
 ****
 36  38  39  40  41 0
 6-311+G(2d,p)
 ****
 1  2  3  4  5  16  17  18  19  20  21  22  23  24  25 0
 3-21G
 ****
 27  28  30  31  32  35  37  42  43  44  45  46  47 0
 3-21G
 ****
 48  49 0
 3-21G
 ****


