%nproc=1
%NoSave
%Mem=1900MB
#P OB98/GEN NMR

erre ene a

0 1
  C     -235.608      74.582     -39.965
  O     -236.479      75.698     -39.896
  P     -237.933      75.470     -39.250
  C     -238.867      75.007     -41.666
  O     -238.749      74.590     -40.315
  C     -240.331      74.942     -42.111
  O     -240.851      73.609     -41.893
  C     -241.270      75.866     -41.349
  O     -241.155      77.213     -41.789
  C     -242.619      75.221     -41.634
  O     -243.093      75.601     -42.934
  C     -242.261      73.719     -41.618
  N     -242.607      73.053     -40.366
  C     -243.910      73.239     -39.909
  O     -244.744      73.917     -40.508
  N     -244.217      72.628     -38.718
  C     -243.356      71.925     -37.929
  O     -243.674      71.437     -36.854
  C     -241.985      71.791     -38.446
  C     -241.680      72.351     -39.618
  O     -238.546      76.944     -39.383
  O     -237.879      74.924     -37.863
  H     -238.151      77.437     -40.123
  H     -243.889      75.060     -43.110
  H     -245.165      72.727     -38.379
  H     -241.269      71.245     -37.844
  H     -240.672      72.274     -40.011
  H     -242.773      73.199     -42.438
  H     -243.389      75.505     -40.906
  H     -241.056      75.813     -40.277
  H     -240.375      75.150     -43.189
  H     -238.264      74.352     -42.298
  H     -238.487      76.028     -41.762
  P     -241.646      78.346     -40.759
  C     -244.022      78.860     -41.722
  O     -243.245      78.255     -40.713
  O     -241.348      79.678     -41.600
  O     -240.961      78.292     -39.433
  H     -241.601      79.595     -42.538
  H     -245.011      78.401     -41.725
  H     -243.570      78.730     -42.709
  H     -244.126      79.926     -41.510
  H     -234.683      74.879     -40.414
  H     -236.060      73.812     -40.555
  H     -235.423      74.213     -38.978

 3  4  5  6  7  8  9  10  11  12  13  24  28  29  30  31  32 0
 6-311+G(2d,p)
 ****
 33  34 0
 6-311+G(2d,p)
 ****
 1  2  14  15  16  17  18  19  20  21  22  23  25  26  27 0
 3-21G
 ****
 35  36  37  38  39  40  41  42  43  44  45 0
 3-21G
 ****


