%nproc=1
%NoSave
%Mem=1900MB
#P OB98/GEN NMR

erre ene a

0 1
  C     -857.241    -798.909    -122.245
  O     -857.808    -799.414    -121.046
  H     -856.951    -799.750    -122.881
  H     -856.346    -798.316    -122.036
  H     -857.978    -798.296    -122.777
  P     -858.167    -798.375    -119.874
  C     -860.721    -798.661    -120.155
  O     -859.606    -797.782    -120.264
  C     -861.333    -798.559    -118.752
  O     -861.840    -797.232    -118.535
  C     -862.526    -799.495    -118.556
  O     -862.096    -800.827    -118.364
  C     -863.186    -798.843    -117.351
  O     -862.538    -799.200    -116.128
  C     -863.005    -797.343    -117.666
  N     -864.179    -796.731    -118.296
  C     -865.350    -796.756    -117.550
  O     -865.359    -797.270    -116.419
  N     -866.495    -796.228    -118.085
  C     -866.466    -795.705    -119.282
  N     -867.625    -795.200    -119.764
  C     -865.237    -795.657    -120.092
  C     -864.140    -796.181    -119.563
  O     -857.125    -797.335    -119.556
  O     -858.483    -799.322    -118.627
  H     -862.502    -800.157    -116.114
  H     -857.669    -799.495    -118.108
  H     -865.240    -795.204    -121.083
  H     -863.195    -796.182    -120.101
  H     -862.765    -796.779    -116.753
  H     -864.243    -799.137    -117.269
  H     -863.211    -799.425    -119.407
  H     -860.549    -798.763    -118.014
  H     -868.437    -795.278    -119.180
  H     -860.365    -799.686    -120.336
  H     -867.697    -794.678    -120.641
  H     -861.481    -798.428    -120.904
  P     -863.076    -802.050    -118.666
  C     -861.594    -802.717    -120.679
  O     -862.901    -802.369    -120.245
  O     -864.489    -801.863    -118.220
  O     -862.343    -803.308    -117.990
  H     -862.435    -803.280    -117.006
  H     -861.606    -802.903    -121.733
  H     -861.270    -803.598    -120.165
  H     -860.922    -801.912    -120.467

 6  7  8  9  10  11  12  13  14  15  16  26  30  31  32  33  35 0
 6-311+G(2d,p)
 ****
 37  38 0
 6-311+G(2d,p)
 ****
 1  2  3  4  5  17  18  19  20  21  22  23  24  25 0
 3-21G
 ****
 27  28  29  34  36  39  40  41  42  43  44  45  46 0
 3-21G
 ****


