%nproc=1
%NoSave
%Mem=1900MB
#P OB98/GEN NMR

erre ene a

0 1
  C      151.520       8.021       4.493
  O      150.137       7.813       4.716
  P      149.183       9.093       4.851
  C      148.305       8.822       7.283
  O      149.162       9.523       6.396
  C      147.914       9.716       8.463
  O      146.732       9.161       9.117
  C      149.007       9.853       9.534
  O      148.911      11.176      10.082
  C      148.574       8.837      10.575
  O      149.149       9.067      11.852
  C      147.054       9.022      10.516
  N      146.322       7.915      11.131
  C      146.374       7.807      12.518
  O      146.995       8.581      13.246
  N      145.730       6.724      13.055
  C      145.131       5.717      12.356
  O      144.673       4.714      12.893
  C      145.107       5.885      10.895
  C      145.693       6.957      10.357
  O      147.723       8.488       4.604
  O      149.495      10.204       3.905
  H      148.730       9.864      12.224
  H      147.430       8.666       3.690
  H      145.748       6.635      14.059
  H      144.621       5.114      10.312
  H      145.708       7.097       9.281
  H      146.769       9.962      11.005
  H      148.867       7.833      10.248
  H      150.018       9.668       9.155
  H      147.635      10.704       8.075
  H      148.823       7.939       7.661
  H      147.414       8.485       6.743
  P      150.263      11.872      10.600
  C      149.502      11.605      13.087
  O      150.491      11.377      12.105
  O      149.773      13.390      10.764
  O      151.417      11.717       9.663
  H      148.896      13.456      11.180
  H      148.495      11.552      12.664
  H      149.655      12.591      13.532
  H      149.596      10.846      13.868
  H      152.017       7.076       4.426
  H      151.932       8.584       5.305
  H      151.657       8.561       3.579

 3  4  5  6  7  8  9  10  11  12  13  23  28  29  30  31  32 0
 6-311+G(2d,p)
 ****
 33  34 0
 6-311+G(2d,p)
 ****
 1  2  14  15  16  17  18  19  20  21  22  24  25  26 0
 3-21G
 ****
 27  35  36  37  38  39  40  41  42  43  44  45 0
 3-21G
 ****


