%nproc=1
%NoSave
%Mem=1900MB
#P OB98/GEN NMR

erre ene a

0 1
  C       79.176     -50.758      95.100
  O       79.543     -51.454      93.920
  P       78.432     -51.883      92.846
  C       78.157     -54.219      93.884
  O       77.514     -52.992      93.557
  C       77.265     -55.406      93.526
  O       76.100     -55.390      94.385
  C       76.772     -55.381      92.084
  O       76.710     -56.723      91.593
  C       75.354     -54.844      92.180
  O       74.551     -55.292      91.077
  C       74.925     -55.374      93.553
  N       69.919     -54.769      94.527
  C       70.599     -55.749      93.893
  N       71.925     -55.833      93.646
  C       72.570     -54.785      94.185
  C       72.014     -53.711      94.863
  C       70.617     -53.725      95.028
  N       69.930     -52.728      95.687
  N       72.993     -52.812      95.241
  C       74.117     -53.345      94.816
  N       73.916     -54.542      94.181
  O       78.965     -52.281      91.513
  O       77.460     -50.619      92.746
  H       73.617     -55.100      91.304
  H       77.168     -50.487      91.823
  H       69.997     -56.576      93.528
  H       75.095     -52.904      94.931
  H       74.540     -56.398      93.487
  H       75.373     -53.748      92.160
  H       77.403     -54.771      91.428
  H       77.814     -56.332      93.734
  H       78.354     -54.229      94.960
  H       68.950     -52.882      95.863
  H       70.463     -52.045      96.208
  H       79.115     -54.281      93.356
  P       77.671     -57.061      90.345
  C       75.635     -56.766      88.750
  O       76.950     -56.385      89.083
  O       77.981     -58.518      90.255
  O       78.932     -56.125      90.661
  H       78.679     -55.356      91.219
  H       75.334     -56.229      87.845
  H       74.947     -56.498      89.556
  H       75.583     -57.841      88.557
  H       80.050     -50.562      95.685
  H       78.493     -51.354      95.668
  H       78.708     -49.832      94.837

 3  4  5  6  7  8  9  10  11  12  22  25  29  30  31  32 0
 6-311+G(2d,p)
 ****
 33  36  37 0
 6-311+G(2d,p)
 ****
 1  2  13  14  15  16  17  18  19  20  21  23  24  26 0
 3-21G
 ****
 27  28  34  35  38  39  40  41  42  43  44  45  46  47  48 0
 3-21G
 ****


