%nproc=1
%NoSave
%Mem=1900MB
#P OB98/GEN NMR

erre ene a

0 1
  C      -46.181    -198.605     174.326
  O      -46.537    -197.433     175.033
  H      -46.274    -198.410     173.253
  H      -46.848    -199.432     174.589
  H      -45.145    -198.882     174.541
  P      -46.559    -197.485     176.634
  C      -48.522    -199.124     177.022
  O      -48.078    -197.771     177.056
  C      -50.029    -199.201     177.259
  O      -50.496    -200.553     177.082
  C      -50.462    -198.789     178.660
  O      -50.412    -197.385     178.807
  C      -51.853    -199.403     178.714
  O      -52.800    -198.591     178.001
  C      -51.621    -200.744     177.974
  N      -51.382    -201.869     178.876
  C      -52.443    -202.766     179.032
  O      -53.509    -202.579     178.445
  N      -52.272    -203.843     179.870
  C      -51.134    -204.034     180.460
  N      -51.027    -205.119     181.273
  C      -49.978    -203.129     180.293
  C      -50.173    -202.074     179.505
  O      -45.929    -196.325     177.341
  O      -45.819    -198.860     176.985
  H      -52.873    -197.753     178.503
  H      -44.870    -198.707     177.152
  H      -49.043    -203.331     180.797
  H      -49.373    -201.362     179.328
  H      -52.485    -200.992     177.346
  H      -52.224    -199.504     179.733
  H      -49.839    -199.287     179.413
  H      -50.523    -198.578     176.497
  H      -51.841    -205.721     181.340
  H      -47.990    -199.658     177.818
  H      -50.150    -205.454     181.649
  H      -48.265    -199.592     176.064
  P      -49.474    -196.689     179.909
  C      -51.514    -197.155     181.407
  O      -50.455    -196.257     181.104
  O      -48.591    -195.602     179.397
  O      -48.672    -197.915     180.551
  H      -47.943    -198.207     179.944
  H      -52.095    -196.761     182.215
  H      -51.107    -198.104     181.689
  H      -52.137    -197.276     180.545

 6  7  8  9  10  11  12  13  14  15  16  26  30  31  32  33  35 0
 6-311+G(2d,p)
 ****
 37  38 0
 6-311+G(2d,p)
 ****
 1  2  3  4  5  17  18  19  20  21  22  23  24  25 0
 3-21G
 ****
 27  28  29  34  36  39  40  41  42  43  44  45  46 0
 3-21G
 ****


