%nproc=1
%NoSave
%Mem=1900MB
#P OB98/GEN NMR

erre ene a

0 1
  C      751.658    -120.789    -772.177
  O      750.928    -121.975    -771.884
  P      751.709    -123.319    -771.516
  C      750.343    -124.372    -769.569
  O      750.622    -124.356    -770.950
  C      749.158    -125.317    -769.249
  O      747.990    -124.814    -769.943
  C      749.345    -126.743    -769.753
  O      748.426    -127.590    -769.054
  C      748.929    -126.639    -771.203
  O      748.573    -127.893    -771.767
  C      747.780    -125.584    -771.143
  N      747.782    -124.711    -772.328
  C      747.251    -125.245    -773.499
  O      746.722    -126.353    -773.555
  N      747.411    -124.484    -774.633
  C      748.085    -123.295    -774.691
  O      748.490    -122.796    -775.739
  C      748.418    -122.675    -773.401
  C      748.268    -123.420    -772.294
  O      752.549    -122.904    -770.210
  O      752.591    -123.853    -772.589
  H      748.285    -127.716    -772.703
  H      753.461    -122.652    -770.462
  H      747.154    -124.941    -775.502
  H      748.803    -121.669    -773.398
  H      748.559    -123.008    -771.325
  H      746.796    -126.077    -771.071
  H      749.774    -126.225    -771.785
  H      750.358    -127.137    -769.650
  H      748.961    -125.301    -768.176
  H      750.117    -123.354    -769.237
  H      751.217    -124.702    -769.008
  P      748.849    -129.119    -768.799
  C      746.656    -129.376    -767.498
  O      747.481    -129.913    -768.500
  O      749.945    -129.347    -767.825
  O      749.234    -129.631    -770.276
  H      749.770    -130.430    -770.205
  H      745.600    -129.630    -767.717
  H      746.726    -128.287    -767.447
  H      746.921    -129.799    -766.528
  H      750.975    -119.996    -772.399
  H      752.293    -120.960    -773.021
  H      752.255    -120.519    -771.331

 3  4  5  6  7  8  9  10  11  12  13  23  28  29  30  31  32 0
 6-311+G(2d,p)
 ****
 33  34 0
 6-311+G(2d,p)
 ****
 1  2  14  15  16  17  18  19  20  21  22  24  25  26  27 0
 3-21G
 ****
 35  36  37  38  39  40  41  42  43  44  45 0
 3-21G
 ****


