%nproc=1
%NoSave
%Mem=1900MB
#P OB98/GEN NMR

erre ene a

0 1
  C      548.703     252.517     -93.317
  O      549.981     252.232     -92.780
  H      548.049     251.645     -93.219
  H      548.261     253.352     -92.759
  H      548.789     252.799     -94.371
  P      550.782     251.009     -93.434
  C      553.087     252.224     -93.343
  O      552.285     251.144     -92.878
  C      554.041     252.657     -92.235
  O      553.355     253.492     -91.276
  C      554.626     251.487     -91.434
  O      555.730     250.874     -92.076
  C      555.053     252.204     -90.161
  O      556.277     252.922     -90.394
  C      553.882     253.188     -89.952
  N      552.613     251.584     -85.253
  C      553.755     252.121     -85.749
  N      554.008     252.540     -87.007
  C      552.922     252.377     -87.783
  C      551.698     251.847     -87.416
  C      551.558     251.439     -86.087
  N      550.405     250.858     -85.583
  N      550.836     251.820     -88.503
  C      551.529     252.333     -89.503
  N      552.812     252.653     -89.125
  O      550.939     251.432     -94.977
  O      550.179     249.656     -93.258
  H      556.571     253.268     -89.532
  H      551.212     250.661     -95.522
  H      554.582     252.223     -85.039
  H      551.166     252.478     -90.514
  H      554.205     254.134     -89.501
  H      555.231     251.512     -89.328
  H      553.847     250.752     -91.185
  H      554.850     253.256     -92.682
  H      552.435     253.065     -93.616
  H      550.458     250.463     -84.655
  H      549.669     250.613     -86.230
  H      553.652     251.903     -94.226
  P      555.721     249.278     -92.212
  C      556.978     249.635     -94.463
  O      556.884     248.895     -93.249
  O      554.372     248.995     -93.050
  O      555.734     248.534     -90.913
  H      553.973     248.142     -92.792
  H      557.796     249.264     -95.044
  H      557.139     250.669     -94.239
  H      556.069     249.528     -95.017

 6  7  8  9  10  11  12  13  14  15  25  28  32  33  34  35 0
 6-311+G(2d,p)
 ****
 36  39  40 0
 6-311+G(2d,p)
 ****
 1  2  3  4  5  16  17  18  19  20  21  22  23  24 0
 3-21G
 ****
 26  27  29  30  31  37  38  41  42  43  44  45  46  47 0
 3-21G
 ****
 48 0
 3-21G
 ****


