%nproc=1
%NoSave
%Mem=1900MB
#P OB98/GEN NMR

erre ene a

0 1
  C      261.630     110.614    -233.047
  O      262.286     110.769    -234.293
  P      261.708     109.961    -235.553
  C      261.832     107.478    -236.345
  O      262.036     108.408    -235.292
  C      262.361     106.096    -235.948
  O      263.812     106.142    -235.919
  C      261.895     105.598    -234.574
  O      261.784     104.175    -234.657
  C      263.052     105.971    -233.667
  O      263.076     105.211    -232.461
  C      264.229     105.728    -234.601
  N      268.822     105.451    -232.478
  C      267.851     104.475    -232.629
  N      268.186     103.233    -232.205
  N      266.669     104.687    -233.149
  C      266.489     105.973    -233.538
  C      267.349     107.037    -233.407
  C      268.668     106.780    -232.862
  O      269.584     107.596    -232.793
  N      266.779     108.208    -233.838
  C      265.601     107.831    -234.306
  N      265.401     106.483    -234.189
  O      262.705     110.367    -236.733
  O      260.273     110.226    -235.896
  H      263.817     105.539    -231.917
  H      262.354     111.123    -237.244
  H      269.716     105.223    -232.084
  H      264.863     108.486    -234.742
  H      264.519     104.669    -234.648
  H      262.979     107.033    -233.390
  H      269.091     102.992    -231.823
  H      260.944     106.035    -234.247
  H      267.507     102.490    -232.336
  H      262.070     105.381    -236.727
  H      262.384     107.818    -237.232
  H      260.770     107.433    -236.598
  P      260.531     103.478    -233.937
  C      260.108     102.210    -231.718
  O      261.058     102.802    -232.587
  O      260.238     102.217    -234.889
  O      259.317     104.342    -233.813
  H      259.282     102.019    -234.890
  H      260.623     101.476    -231.087
  H      259.315     101.703    -232.269
  H      259.673     102.982    -231.075
  H      262.124     111.209    -232.307
  H      261.658     109.585    -232.755
  H      260.612     110.931    -233.138

 3  4  5  6  7  8  9  10  11  12  23  26  30  31 0
 6-311+G(2d,p)
 ****
 33  35  36  37  38 0
 6-311+G(2d,p)
 ****
 1  2  13  14  15  16  17  18  19  20  21  22  24  25 0
 3-21G
 ****
 27  28  29  32  34  39  40  41  42  43  44  45  46  47  48  49 0
 3-21G
 ****


