%nproc=1
%NoSave
%Mem=1900MB
#P OB98/GEN NMR

erre ene a

0 1
  C     -165.822      86.115    -446.599
  O     -164.698      86.036    -445.716
  P     -164.980      86.434    -444.183
  C     -164.476      88.977    -444.044
  O     -165.473      87.969    -444.162
  C     -165.080      90.371    -444.265
  O     -165.459      90.556    -445.663
  C     -166.336      90.639    -443.414
  O     -166.311      92.029    -443.065
  C     -167.454      90.349    -444.412
  O     -168.711      90.877    -444.006
  C     -166.840      90.972    -445.667
  N     -170.937      91.705    -448.631
  C     -170.562      92.260    -447.458
  N     -169.450      92.009    -446.725
  C     -168.693      91.080    -447.334
  C     -168.943      90.426    -448.530
  C     -170.127      90.769    -449.194
  N     -170.529      90.197    -450.382
  N     -167.922      89.518    -448.817
  C     -167.127      89.574    -447.759
  N     -167.501      90.562    -446.885
  O     -163.519      86.494    -443.536
  O     -165.889      85.481    -443.474
  H     -169.356      90.799    -444.738
  H     -163.330      85.667    -443.050
  H     -171.247      93.004    -447.045
  H     -166.269      88.940    -447.585
  H     -166.862      92.067    -445.644
  H     -167.576      89.272    -444.527
  H     -166.387      90.035    -442.505
  H     -164.307      91.120    -444.032
  H     -163.685      88.813    -444.783
  H     -171.404      90.513    -450.786
  H     -169.965      89.489    -450.828
  H     -163.999      88.898    -443.058
  P     -165.870      92.437    -441.568
  C     -168.160      91.793    -440.610
  O     -166.775      91.513    -440.617
  O     -166.605      93.855    -441.426
  O     -164.395      92.483    -441.305
  H     -167.544      93.793    -441.687
  H     -168.664      91.049    -439.984
  H     -168.563      91.743    -441.624
  H     -168.345      92.793    -440.183
  H     -165.521      85.830    -447.586
  H     -166.193      87.118    -446.615
  H     -166.592      85.455    -446.256

 3  4  5  6  7  8  9  10  11  12  22  25  29  30  31  32 0
 6-311+G(2d,p)
 ****
 33  36  37 0
 6-311+G(2d,p)
 ****
 1  2  13  14  15  16  17  18  19  20  21  23  24  26 0
 3-21G
 ****
 27  28  34  35  38  39  40  41  42  43  44  45  46  47  48 0
 3-21G
 ****


