%nproc=1
%NoSave
%Mem=1900MB
#P OB98/GEN NMR

erre ene a

0 1
  C     -305.381      37.059     563.003
  O     -304.548      36.022     563.538
  P     -304.503      35.635     565.095
  C     -302.611      37.368     565.443
  O     -303.864      36.874     565.895
  C     -301.808      37.973     566.604
  O     -301.528      36.954     567.595
  C     -300.439      38.521     566.234
  O     -300.516      39.743     565.524
  C     -299.781      38.631     567.605
  O     -300.141      39.857     568.255
  C     -300.403      37.437     568.362
  N     -299.442      36.369     568.613
  C     -298.882      36.322     569.899
  O     -299.139      37.201     570.728
  N     -298.030      35.286     570.201
  C     -297.691      34.439     569.278
  N     -296.857      33.427     569.641
  C     -298.153      34.539     567.881
  C     -299.014      35.513     567.625
  O     -303.833      34.328     565.378
  O     -306.036      35.611     565.569
  H     -306.129      35.014     566.334
  H     -301.014      39.723     568.669
  H     -297.804      33.836     567.130
  H     -299.418      35.654     566.626
  H     -300.820      37.773     569.318
  H     -298.691      38.598     567.546
  H     -299.901      37.775     565.632
  H     -302.428      38.757     567.070
  H     -296.565      33.380     570.610
  H     -302.803      38.156     564.698
  H     -296.553      32.702     569.006
  H     -302.052      36.556     564.962
  P     -300.115      39.706     563.967
  C     -297.545      39.743     564.374
  O     -298.664      39.031     563.864
  O     -299.842      41.255     563.619
  O     -301.148      39.122     563.072
  H     -300.179      41.444     562.723
  H     -296.781      39.015     564.670
  H     -297.817      40.350     565.239
  H     -297.134      40.387     563.589
  H     -305.233      37.125     561.945
  H     -305.124      37.993     563.458
  H     -306.407      36.833     563.207

 3  4  5  6  7  8  9  10  11  12  13  24  27  28  29  30  32 0
 6-311+G(2d,p)
 ****
 34  35 0
 6-311+G(2d,p)
 ****
 1  2  14  15  16  17  18  19  20  21  22  23  25  26 0
 3-21G
 ****
 31  33  36  37  38  39  40  41  42  43  44  45  46 0
 3-21G
 ****


