%nproc=1
%NoSave
%Mem=1900MB
#P OB98/GEN NMR

erre ene a

0 1
  C     -177.448     -93.243     -38.103
  O     -176.366     -93.162     -39.004
  H     -177.583     -92.268     -37.626
  H     -177.231     -93.979     -37.327
  H     -178.374     -93.508     -38.622
  P     -176.123     -94.359     -40.042
  C     -175.056     -96.706     -39.924
  O     -175.394     -95.524     -39.212
  C     -175.544     -97.937     -39.157
  O     -174.896     -97.945     -37.847
  C     -177.070     -97.952     -38.923
  O     -177.523     -99.313     -38.958
  C     -177.162     -97.408     -37.511
  O     -178.388     -97.730     -36.903
  C     -175.941     -98.055     -36.864
  N     -175.594     -97.403     -35.605
  C     -176.388     -97.700     -34.503
  O     -177.356     -98.459     -34.545
  N     -176.085     -97.029     -33.348
  C     -175.159     -96.039     -33.221
  O     -174.981     -95.418     -32.181
  C     -174.382     -95.730     -34.434
  C     -174.626     -96.420     -35.551
  O     -175.449     -93.990     -41.322
  O     -177.581     -94.977     -40.277
  H     -178.501     -97.210     -36.085
  H     -177.606     -95.478     -41.115
  H     -176.645     -97.241     -32.536
  H     -173.648     -94.935     -34.371
  H     -174.087     -96.207     -36.468
  H     -176.114     -99.123     -36.681
  H     -177.071     -96.316     -37.522
  H     -177.621     -97.358     -39.652
  H     -175.216     -98.843     -39.681
  H     -173.967     -96.743     -40.032
  H     -175.514     -96.676     -40.920
  P     -178.941     -99.714     -39.591
  C     -181.294    -100.448     -38.859
  O     -180.036     -99.933     -38.432
  O     -178.874    -100.836     -40.577
  O     -179.440     -98.379     -40.321
  H     -179.776     -98.606     -41.210
  H     -181.942    -100.554     -38.014
  H     -181.151    -101.403     -39.320
  H     -181.735     -99.774     -39.564

 6  7  8  9  10  11  12  13  14  15  16  26  31  32  33  34  35 0
 6-311+G(2d,p)
 ****
 36  37 0
 6-311+G(2d,p)
 ****
 1  2  3  4  5  17  18  19  20  21  22  23  24  25 0
 3-21G
 ****
 27  28  29  30  38  39  40  41  42  43  44  45 0
 3-21G
 ****


