%nproc=1
%NoSave
%Mem=1900MB
#P OB98/GEN NMR

erre ene a

0 1
  C      -16.306    -246.772     496.569
  O      -17.716    -246.717     496.587
  H      -15.918    -245.761     496.433
  H      -15.978    -247.388     495.723
  H      -15.912    -247.184     497.501
  P      -18.526    -247.954     497.194
  C      -19.055    -250.273     496.197
  O      -18.064    -249.284     496.411
  C      -18.499    -251.478     495.423
  O      -18.087    -251.062     494.100
  C      -17.262    -252.073     496.088
  O      -17.515    -253.003     497.123
  C      -16.569    -252.753     494.897
  O      -17.094    -254.073     494.686
  C      -16.924    -251.833     493.731
  N      -12.373    -251.301     491.462
  C      -13.104    -252.453     491.677
  N      -12.530    -253.615     491.288
  N      -14.289    -252.457     492.238
  C      -14.698    -251.234     492.653
  C      -14.048    -250.021     492.509
  C      -12.765    -250.024     491.833
  O      -12.068    -249.033     491.627
  N      -14.775    -249.000     493.062
  C      -15.820    -249.589     493.605
  N      -15.831    -250.946     493.357
  O      -20.020    -247.734     496.645
  O      -18.517    -248.061     498.696
  H      -16.466    -254.569     494.124
  H      -20.658    -248.152     497.247
  H      -11.478    -251.354     490.995
  H      -16.613    -249.086     494.155
  H      -17.195    -252.410     492.830
  H      -15.496    -252.867     495.070
  H      -11.578    -253.670     490.963
  H      -16.607    -251.277     496.458
  H      -12.906    -254.485     491.669
  H      -19.289    -252.224     495.290
  H      -19.861    -249.809     495.634
  H      -19.477    -250.606     497.154
  P      -17.177    -252.627     498.644
  C      -14.995    -252.621     500.081
  O      -15.575    -252.671     498.789
  O      -17.666    -253.926     499.447
  O      -17.825    -251.385     499.143
  H      -18.567    -253.773     499.802
  H      -13.929    -252.660     499.995
  H      -15.337    -253.455     500.658
  H      -15.281    -251.711     500.565

 6  7  8  9  10  11  12  13  14  15  26  29  33  34 0
 6-311+G(2d,p)
 ****
 36  38  39  40  41 0
 6-311+G(2d,p)
 ****
 1  2  3  4  5  16  17  18  19  20  21  22  23  24  25 0
 3-21G
 ****
 27  28  30  31  32  35  37  42  43  44  45  46  47 0
 3-21G
 ****
 48  49 0
 3-21G
 ****


