%nproc=1
%NoSave
%Mem=1900MB
#P OB98/GEN NMR

erre ene a

0 1
  C      182.857    -139.997     294.387
  O      182.043    -139.846     295.534
  H      183.676    -139.276     294.443
  H      182.276    -139.794     293.483
  H      183.280    -141.004     294.340
  P      180.819    -140.858     295.752
  C      179.209    -139.132     294.731
  O      179.490    -139.958     295.851
  C      177.890    -138.386     294.932
  O      176.810    -139.354     294.997
  C      177.848    -137.546     296.213
  O      177.133    -136.342     295.942
  C      177.049    -138.409     297.173
  O      176.385    -137.637     298.173
  C      176.092    -139.129     296.224
  N      173.006    -141.195     299.648
  C      173.170    -139.875     299.278
  N      172.422    -138.961     299.934
  N      174.002    -139.483     298.349
  C      174.676    -140.502     297.765
  C      174.602    -141.847     298.043
  C      173.689    -142.268     299.084
  O      173.509    -143.420     299.463
  N      175.466    -142.566     297.252
  C      176.062    -141.656     296.504
  N      175.625    -140.390     296.785
  O      180.985    -141.836     296.870
  O      180.662    -141.589     294.338
  H      175.996    -136.857     297.721
  H      181.076    -142.472     294.360
  H      172.359    -141.441     300.378
  H      176.816    -141.860     295.755
  H      175.198    -138.532     295.999
  H      177.716    -139.123     297.674
  H      171.750    -139.193     300.651
  H      178.842    -137.310     296.604
  H      172.511    -137.988     299.664
  H      177.705    -137.763     294.049
  H      179.140    -139.768     293.840
  H      180.027    -138.417     294.591
  P      177.916    -135.110     295.281
  C      178.026    -133.669     297.413
  O      177.526    -133.777     296.085
  O      177.823    -135.008     293.792
  O      179.431    -135.365     295.747
  H      180.034    -135.006     295.069
  H      177.701    -132.744     297.842
  H      179.095    -133.698     297.395
  H      177.657    -134.484     298.000

 6  7  8  9  10  11  12  13  14  15  26  29  33  34 0
 6-311+G(2d,p)
 ****
 36  38  39  40  41 0
 6-311+G(2d,p)
 ****
 1  2  3  4  5  16  17  18  19  20  21  22  23  24  25 0
 3-21G
 ****
 27  28  30  31  32  35  37  42  43  44  45  46  47 0
 3-21G
 ****
 48  49 0
 3-21G
 ****


