%nproc=1
%NoSave
%Mem=1900MB
#P OB98/GEN NMR

erre ene a

0 1
  C      393.082    -214.440    -223.377
  O      392.640    -213.346    -224.164
  P      393.710    -212.631    -225.125
  C      392.532    -213.761    -227.130
  O      393.764    -213.502    -226.474
  C      392.683    -213.640    -228.639
  O      393.034    -212.268    -228.972
  C      393.766    -214.550    -229.241
  O      393.271    -215.147    -230.448
  C      394.869    -213.580    -229.630
  O      395.681    -214.086    -230.684
  C      394.038    -212.347    -229.998
  N      395.113    -208.399    -232.962
  C      394.113    -209.344    -233.078
  N      393.321    -209.249    -234.171
  N      393.904    -210.294    -232.208
  C      394.750    -210.248    -231.144
  C      395.771    -209.358    -230.914
  C      396.027    -208.346    -231.918
  O      396.957    -207.538    -231.916
  N      396.395    -209.620    -229.720
  C      395.760    -210.668    -229.234
  N      394.781    -211.112    -230.086
  O      395.102    -212.961    -224.403
  O      393.527    -211.166    -225.303
  H      395.105    -214.193    -231.464
  H      395.577    -212.128    -224.215
  H      395.239    -207.702    -233.670
  H      395.987    -211.146    -228.293
  H      393.532    -212.506    -230.964
  H      395.507    -213.391    -228.761
  H      393.403    -208.524    -234.868
  H      394.125    -215.329    -228.563
  H      392.568    -209.921    -234.267
  H      391.709    -213.841    -229.107
  H      391.783    -213.038    -226.784
  H      392.193    -214.769    -226.862
  P      393.600    -216.709    -230.649
  C      391.245    -217.830    -230.666
  O      392.410    -217.499    -229.930
  O      394.855    -216.946    -229.691
  O      393.877    -217.088    -232.065
  H      395.377    -217.711    -229.995
  H      391.369    -217.631    -231.737
  H      390.410    -217.241    -230.291
  H      391.030    -218.891    -230.523
  H      392.266    -214.811    -222.792
  H      393.869    -214.117    -222.727
  H      393.445    -215.217    -224.017

 3  4  5  6  7  8  9  10  11  12  23  26  30  31  33  0
 6-311+G(2d,p)
 ****
 35  36  37  38 0
 6-311+G(2d,p)
 ****
 1  2  13  14  15  16  17  18  19  20  21  22  24  25  27  28  29 0
 3-21G
 ****
 32  34  39  40  41  42  43  44  45  46  47  48  49 0
 3-21G
 ****


