%nproc=1
%NoSave
%Mem=1900MB
#P OB98/GEN NMR

erre ene a

0 1
  C      304.522    -428.390    -843.848
  O      303.524    -428.048    -842.912
  H      304.182    -429.253    -844.427
  H      305.447    -428.659    -843.324
  H      304.710    -427.556    -844.525
  P      303.817    -426.787    -841.971
  C      305.811    -426.301    -840.372
  O      304.906    -427.269    -840.895
  C      307.072    -426.997    -839.870
  O      307.687    -427.736    -840.962
  C      308.151    -426.046    -839.371
  O      307.887    -425.571    -838.060
  C      309.384    -426.931    -839.452
  O      309.511    -427.763    -838.296
  C      309.113    -427.777    -840.705
  N      313.775    -427.020    -842.629
  C      313.353    -427.593    -841.479
  N      312.086    -427.771    -841.041
  C      311.209    -427.303    -841.951
  C      311.483    -426.702    -843.168
  C      312.851    -426.561    -843.498
  N      313.274    -425.957    -844.659
  N      310.317    -426.319    -843.801
  C      309.357    -426.695    -842.986
  N      309.843    -427.298    -841.860
  O      302.469    -426.649    -841.109
  O      304.147    -425.521    -842.684
  H      310.281    -428.346    -838.461
  H      301.909    -425.941    -841.489
  H      314.142    -427.950    -840.817
  H      308.293    -426.556    -843.166
  H      309.383    -428.831    -840.557
  H      310.292    -426.323    -839.524
  H      308.264    -425.205    -840.076
  H      306.794    -427.726    -839.088
  H      305.337    -425.775    -839.531
  H      306.059    -425.578    -841.161
  H      314.264    -425.829    -844.802
  H      312.599    -425.508    -845.261
  P      308.697    -424.287    -837.555
  C      311.220    -423.695    -837.237
  O      310.239    -424.703    -837.488
  O      308.281    -424.146    -836.023
  O      308.425    -423.033    -838.331
  H      308.229    -423.198    -835.770
  H      312.193    -424.140    -837.225
  H      311.025    -423.236    -836.290
  H      311.176    -422.955    -838.008

 6  7  8  9  10  11  12  13  14  15  25  28  32  33  34  35 0
 6-311+G(2d,p)
 ****
 36  37  40 0
 6-311+G(2d,p)
 ****
 1  2  3  4  5  16  17  18  19  20  21  22  23  24 0
 3-21G
 ****
 26  27  29  30  31  38  39 41  42  43  44  45  46  47  48 0
 3-21G
 ****


