%nproc=1
%NoSave
%Mem=1900MB
#P OB98/GEN NMR

erre ene a

0 1
  C       -3.317      10.574     -11.060
  O       -2.214      11.176     -10.416
  H       -4.215      11.154     -10.833
  H       -3.457       9.553     -10.697
  H       -3.164      10.568     -12.142
  P       -0.796      10.443     -10.572
  C       -1.314       9.161      -8.373
  O       -0.886       9.084      -9.725
  C       -1.589       7.759      -7.842
  O       -2.572       7.102      -8.675
  C       -0.374       6.842      -7.850
  O        0.500       7.099      -6.766
  C       -1.041       5.479      -7.759
  O       -1.351       5.134      -6.400
  C       -2.329       5.684      -8.587
  N       -2.241       5.060      -9.903
  C       -2.442       3.684      -9.933
  O       -2.678       3.015      -8.928
  N       -2.324       3.089     -11.159
  C       -1.994       3.718     -12.324
  O       -1.832       3.115     -13.378
  C       -1.808       5.175     -12.234
  C       -1.928       5.770     -11.045
  O        0.186      11.366      -9.708
  O       -0.322      10.276     -11.976
  H        0.720      11.928     -10.299
  H       -0.494       5.047      -5.939
  H       -2.455       2.091     -11.200
  H       -1.551       5.706     -13.143
  H       -1.775       6.841     -10.950
  H       -3.190       5.249      -8.064
  H       -0.396       4.691      -8.146
  H        0.151       6.915      -8.810
  H       -2.002       7.846      -6.828
  H       -2.234       9.752      -8.314
  H       -0.539       9.658      -7.781
  P        2.064       7.282      -7.070
  C        2.643       4.735      -6.787
  O        2.587       5.872      -7.628
  O        2.660       7.361      -5.590
  O        2.373       8.453      -7.939
  H        2.192       6.787      -4.960
  H        3.016       3.899      -7.341
  H        1.662       4.512      -6.423
  H        3.293       4.934      -5.961

 6  7  8  9  10  11  12  13  14  15  16  27  31  32  33  34  35 0
 6-311+G(2d,p)
 ****
 36  37 0
 6-311+G(2d,p)
 ****
 1  2  3  4  5  17  18  19  20  21  22  23  24  25 0
 3-21G
 ****
 26  28  29  30  38  39  40  41  42  43  44  45 0
 3-21G
 ****


