%nproc=1
%NoSave
%Mem=1900MB
#P OB98/GEN NMR

erre ene a

0 1
  C       32.765     169.008     101.868
  O       31.826     169.240     102.901
  H       32.267     169.142     100.905
  H       33.145     167.984     101.929
  H       33.590     169.720     101.943
  P       32.372     169.114     104.405
  C       33.414     167.124     105.692
  O       32.579     167.538     104.619
  C       34.137     165.828     105.337
  O       35.192     166.080     104.392
  C       34.799     165.134     106.521
  O       33.851     164.384     107.261
  C       35.794     164.235     105.804
  O       35.119     163.064     105.303
  C       36.253     165.116     104.627
  N       40.846     166.258     102.640
  C       39.892     165.386     102.251
  N       38.716     165.104     102.850
  C       38.562     165.832     103.968
  C       39.450     166.763     104.488
  C       40.636     166.976     103.767
  N       41.602     167.876     104.162
  N       38.955     167.312     105.652
  C       37.766     166.764     105.801
  N       37.498     165.834     104.829
  O       31.576     169.825     105.443
  O       33.877     169.634     104.227
  H       35.804     162.438     105.002
  H       34.251     169.317     103.387
  H       40.100     164.841     101.335
  H       37.059     167.015     106.582
  H       36.377     164.532     103.708
  H       36.590     163.886     106.463
  H       35.346     165.845     107.148
  H       33.414     165.164     104.848
  H       32.822     166.983     106.603
  H       42.491     167.843     103.687
  H       41.501     168.316     105.065
  H       34.138     167.924     105.871
  P       34.306     163.521     108.534
  C       35.532     161.289     108.877
  O       35.265     162.360     107.980
  O       33.194     163.045     109.403
  O       35.312     164.475     109.326
  H       35.190     164.373     110.290
  H       36.178     160.579     108.403
  H       34.613     160.811     109.146
  H       36.006     161.671     109.757

 6  7  8  9  10  11  12  13  14  15  25  28  32  33  34  35 0
 6-311+G(2d,p)
 ****
 36  39  40 0
 6-311+G(2d,p)
 ****
 1  2  3  4  5  16  17  18  19  20  21  22  23  24 0
 3-21G
 ****
 26  27  29  30  31  37  38  41  42  43  44  45  46  47 0
 3-21G
 ****
 48 0
 3-21G
 ****


