%nproc=1
%NoSave
%Mem=1900MB
#P OB98/GEN NMR

erre ene a

0 1
  C      -22.716     -37.326     277.877
  O      -22.675     -36.377     278.924
  H      -21.704     -37.698     277.703
  H      -23.077     -36.858     276.958
  H      -23.358     -38.170     278.142
  P      -24.054     -35.785     279.484
  C      -24.798     -33.803     278.008
  O      -24.861     -35.208     278.226
  C      -26.209     -33.236     277.874
  O      -26.999     -34.066     276.995
  C      -26.977     -33.181     279.189
  O      -26.542     -32.101     279.992
  C      -28.405     -33.064     278.682
  O      -28.710     -31.708     278.316
  C      -28.373     -33.978     277.439
  N      -28.930     -35.306     277.694
  C      -30.306     -35.376     277.880
  O      -31.040     -34.389     277.869
  N      -30.816     -36.626     278.112
  C      -30.087     -37.767     278.284
  O      -30.585     -38.849     278.579
  C      -28.635     -37.632     278.102
  C      -28.131     -36.426     277.818
  O      -23.935     -34.850     280.641
  O      -24.894     -37.092     279.876
  H      -29.607     -31.724     277.928
  H      -24.899     -37.197     280.846
  H      -31.808     -36.695     278.261
  H      -28.024     -38.515     278.216
  H      -27.063     -36.304     277.686
  H      -28.939     -33.522     276.616
  H      -29.137     -33.364     279.431
  H      -26.872     -34.131     279.726
  H      -26.138     -32.236     277.423
  H      -24.241     -33.616     277.085
  H      -24.268     -33.337     278.845
  P      -26.230     -32.335     281.543
  C      -28.152     -30.909     282.481
  O      -27.615     -32.220     282.343
  O      -25.109     -31.522     282.102
  O      -25.894     -33.899     281.633
  H      -24.983     -34.014     281.964
  H      -29.070     -30.956     283.028
  H      -28.335     -30.495     281.512
  H      -27.454     -30.291     283.007

 6  7  8  9  10  11  12  13  14  15  16  26  31  32  33  34  35 0
 6-311+G(2d,p)
 ****
 36  37 0
 6-311+G(2d,p)
 ****
 1  2  3  4  5  17  18  19  20  21  22  23  24  25 0
 3-21G
 ****
 27  28  29  30  38  39  40  41  42  43  44  45 0
 3-21G
 ****


