%nproc=1
%NoSave
%Mem=1900MB
#P OB98/GEN NMR

erre ene a

0 1
  C     1123.468      58.094    -455.959
  O     1122.900      57.721    -454.697
  P     1122.319      56.251    -454.408
  C     1120.028      56.670    -455.520
  O     1121.212      55.879    -455.526
  C     1119.066      56.259    -456.633
  O     1118.835      54.839    -456.602
  C     1117.675      56.876    -456.572
  O     1117.713      58.230    -457.003
  C     1116.900      55.942    -457.464
  O     1117.063      56.276    -458.859
  C     1117.535      54.565    -457.153
  N     1116.731      53.785    -456.238
  C     1115.507      53.296    -456.728
  O     1115.129      53.611    -457.858
  N     1114.736      52.495    -455.923
  C     1115.120      52.271    -454.695
  N     1114.306      51.469    -453.957
  C     1116.347      52.823    -454.117
  C     1117.103      53.565    -454.932
  O     1121.863      56.055    -452.998
  O     1123.524      55.241    -454.741
  H     1116.676      55.504    -459.354
  H     1123.458      54.473    -454.172
  H     1116.601      52.627    -453.087
  H     1118.032      54.001    -454.583
  H     1117.699      54.009    -458.070
  H     1115.813      55.981    -457.254
  H     1117.310      56.817    -455.539
  H     1119.561      56.498    -457.600
  H     1113.466      51.106    -454.389
  H     1120.306      57.718    -455.665
  H     1114.506      51.229    -452.997
  H     1119.549      56.579    -454.547
  P     1117.373      59.413    -455.957
  C     1114.858      59.276    -456.400
  O     1115.900      59.182    -455.444
  O     1117.683      60.786    -456.439
  O     1118.278      59.053    -454.677
  H     1118.532      59.871    -454.245
  H     1113.987      58.713    -456.037
  H     1115.182      58.835    -457.356
  H     1114.580      60.314    -456.538
  H     1123.786      59.115    -455.919
  H     1122.734      57.979    -456.729
  H     1124.308      57.466    -456.171

 3  4  5  6  7  8  9  10  11  12  13  23  27  28  29  30  32 0
 6-311+G(2d,p)
 ****
 34  35 0
 6-311+G(2d,p)
 ****
 1  2  14  15  16  17  18  19  20  21  22  24  25  26 0
 3-21G
 ****
 31  33  36  37  38  39  40  41  42  43  44  45  46 0
 3-21G
 ****


