%nproc=1
%NoSave
%Mem=1900MB
#P OB98/GEN NMR

erre ene a

0 1
  C     1231.035    -429.924     141.935
  O     1230.205    -428.775     141.826
  P     1229.852    -428.172     140.380
  C     1230.884    -425.866     140.862
  O     1230.919    -427.028     140.040
  C     1231.745    -424.755     140.251
  O     1233.153    -425.108     140.322
  C     1231.488    -424.487     138.774
  O     1230.264    -423.807     138.563
  C     1232.726    -423.702     138.389
  O     1232.616    -422.321     138.783
  C     1233.820    -424.413     139.233
  N     1234.653    -425.312     138.455
  C     1235.929    -424.845     138.125
  O     1236.273    -423.694     138.459
  N     1236.772    -425.687     137.451
  C     1236.341    -426.820     137.014
  N     1237.255    -427.629     136.413
  C     1234.949    -427.278     137.190
  C     1234.171    -426.490     137.925
  O     1228.407    -427.772     140.212
  O     1230.235    -429.349     139.362
  H     1229.478    -429.510     138.772
  H     1233.496    -421.917     138.670
  H     1234.627    -428.210     136.742
  H     1233.124    -426.746     138.106
  H     1234.451    -423.672     139.716
  H     1232.923    -423.708     137.294
  H     1231.454    -425.438     138.223
  H     1231.600    -423.843     140.848
  H     1238.196    -427.302     136.330
  H     1231.245    -426.111     141.848
  H     1237.099    -428.652     136.334
  H     1229.840    -425.528     140.933
  P     1229.774    -423.640     137.056
  C     1230.038    -421.071     137.245
  O     1230.318    -422.243     136.507
  O     1228.185    -423.386     137.194
  O     1230.046    -424.839     136.173
  H     1227.718    -423.819     136.456
  H     1230.759    -420.299     136.975
  H     1230.111    -421.245     138.326
  H     1229.030    -420.721     137.017
  H     1231.159    -430.178     142.967
  H     1231.991    -429.716     141.502
  H     1230.580    -430.743     141.418

 3  4  5  6  7  8  9  10  11  12  13  24  27  28  29  30  32 0
 6-311+G(2d,p)
 ****
 34  35 0
 6-311+G(2d,p)
 ****
 1  2  14  15  16  17  18  19  20  21  22  23  25  26 0
 3-21G
 ****
 31  33  36  37  38  39  40  41  42  43  44  45  46 0
 3-21G
 ****


