%nproc=1
%NoSave
%Mem=1900MB
#P OB98/GEN NMR

erre ene a

0 1
  C        2.816    -378.465     -77.273
  O        3.086    -378.383     -75.880
  P        1.912    -377.880     -74.908
  C        1.173    -380.292     -74.305
  O        0.805    -379.042     -74.875
  C        0.156    -380.744     -73.257
  O        0.365    -379.981     -72.036
  C       -1.308    -380.550     -73.668
  O       -2.060    -381.614     -73.073
  C       -1.681    -379.242     -72.996
  O       -3.093    -379.101     -72.839
  C       -0.899    -379.370     -71.691
  N       -0.844    -376.852     -67.241
  C       -1.079    -378.147     -67.542
  N       -1.074    -378.746     -68.748
  C       -0.792    -377.854     -69.717
  C       -0.569    -376.498     -69.572
  C       -0.597    -375.991     -68.260
  N       -0.351    -374.672     -67.954
  N       -0.342    -375.908     -70.798
  C       -0.433    -376.890     -71.669
  N       -0.676    -378.088     -71.057
  O        1.217    -376.723     -75.770
  O        2.359    -377.377     -73.582
  H       -3.414    -379.836     -72.286
  H        1.382    -375.856     -75.356
  H       -1.292    -378.792     -66.692
  H       -0.327    -376.789     -72.740
  H       -1.403    -380.024     -70.969
  H       -1.323    -378.397     -73.601
  H       -1.470    -380.533     -74.750
  H        0.353    -381.797     -73.021
  H        2.150    -380.180     -73.819
  H       -0.249    -374.415     -66.985
  H        0.022    -374.065     -68.680
  H        1.261    -381.042     -75.096
  P       -3.148    -382.344     -74.001
  C       -2.132    -384.721     -74.194
  O       -2.374    -383.472     -74.821
  O       -3.489    -381.234     -75.103
  O       -4.372    -382.786     -73.269
  H       -4.398    -381.366     -75.438
  H       -2.166    -385.506     -74.949
  H       -2.872    -384.937     -73.419
  H       -1.133    -384.702     -73.739
  H        3.688    -378.813     -77.786
  H        2.548    -377.497     -77.642
  H        2.008    -379.147     -77.440

 3  4  5  6  7  8  9  10  11  12  22  25  29  30  31  32 0
 6-311+G(2d,p)
 ****
 33  36  37 0
 6-311+G(2d,p)
 ****
 1  2  13  14  15  16  17  18  19  20  21  23  24  26 0
 3-21G
 ****
 27  28  34  35  38  39  40  41  42  43  44  45  46  47  48 0
 3-21G
 ****


