%nproc=1
%NoSave
%Mem=1900MB
#P OB98/GEN NMR

erre ene a

0 1
  C     -180.379       1.847    -133.224
  O     -180.478       2.601    -134.417
  H     -179.659       2.319    -132.552
  H     -181.357       1.833    -132.735
  H     -180.078       0.819    -133.436
  P     -179.250       2.506    -135.447
  C     -177.983       0.362    -136.184
  O     -179.241       0.999    -136.004
  C     -178.149      -0.927    -136.985
  O     -178.929      -1.869    -136.192
  C     -178.860      -0.749    -138.336
  O     -178.234      -1.606    -139.297
  C     -180.265      -1.262    -138.057
  O     -180.924      -1.727    -139.231
  C     -179.987      -2.357    -137.035
  N     -183.160      -6.107    -135.715
  C     -181.923      -6.123    -136.260
  N     -181.116      -5.072    -136.530
  C     -181.682      -3.924    -136.114
  C     -182.930      -3.748    -135.543
  C     -183.701      -4.917    -135.358
  N     -184.985      -4.906    -134.869
  N     -183.175      -2.409    -135.311
  C     -182.106      -1.783    -135.762
  N     -181.179      -2.654    -136.263
  O     -177.977       2.554    -134.470
  O     -179.197       3.575    -136.485
  H     -180.465      -2.527    -139.555
  H     -177.727       3.481    -134.307
  H     -181.533      -7.103    -136.520
  H     -181.968      -0.713    -135.783
  H     -179.650      -3.295    -137.501
  H     -180.867      -0.457    -137.619
  H     -178.861       0.284    -138.703
  H     -177.155      -1.375    -137.130
  H     -177.562       0.121    -135.202
  H     -185.493      -5.777    -134.874
  H     -185.437      -4.018    -134.703
  H     -177.303       1.048    -136.699
  P     -176.860      -1.099    -139.953
  C     -174.902      -0.464    -138.363
  O     -175.652      -1.502    -138.980
  O     -176.947       0.491    -139.800
  O     -176.690      -1.503    -141.380
  H     -176.499       0.930    -140.545
  H     -174.138      -0.893    -137.749
  H     -175.551       0.134    -137.758
  H     -174.453       0.148    -139.117

 6  7  8  9  10  11  12  13  14  15  25  28  32  33  34  35 0
 6-311+G(2d,p)
 ****
 36  39  40 0
 6-311+G(2d,p)
 ****
 1  2  3  4  5  16  17  18  19  20  21  22  23  24 0
 3-21G
 ****
 26  27  29  30  31  37  38  41  42  43  44  45  46  47 0
 3-21G
 ****
 48 0
 3-21G
 ****


