%nproc=1
%NoSave
%Mem=1900MB
#P OB98/GEN NMR

erre ene a

0 1
  C     -899.223    -477.469    1616.646
  O     -897.953    -476.929    1617.010
  P     -896.553    -477.613    1616.494
  C     -895.023    -475.596    1615.813
  O     -895.903    -476.630    1615.397
  C     -895.723    -474.281    1616.005
  O     -896.733    -474.388    1617.083
  C     -894.903    -473.092    1616.441
  O     -894.093    -472.580    1615.358
  C     -895.963    -472.106    1616.934
  O     -896.503    -471.351    1615.853
  C     -897.033    -473.042    1617.550
  N     -897.103    -472.957    1618.984
  C     -898.063    -472.094    1619.523
  O     -898.763    -471.372    1618.803
  N     -898.193    -472.066    1620.891
  C     -897.423    -472.730    1621.648
  N     -897.623    -472.682    1623.043
  C     -896.263    -473.589    1621.126
  C     -896.203    -473.637    1619.831
  O     -896.683    -479.023    1616.068
  O     -895.573    -477.470    1617.783
  H     -894.893    -478.180    1617.719
  H     -897.153    -471.919    1615.406
  H     -895.623    -474.109    1621.777
  H     -895.393    -474.192    1619.319
  H     -898.023    -472.788    1617.113
  H     -895.523    -471.350    1617.624
  H     -894.223    -473.388    1617.282
  H     -896.293    -474.025    1615.063
  H     -898.413    -472.090    1623.340
  H     -894.233    -475.468    1615.078
  H     -897.043    -473.185    1623.678
  H     -894.523    -475.925    1616.787
  P     -892.513    -472.987    1615.406
  C     -892.293    -473.798    1612.895
  O     -892.303    -474.158    1614.252
  O     -892.333    -473.779    1616.786
  O     -891.563    -471.829    1615.263
  H     -891.463    -473.550    1617.233
  H     -891.663    -474.516    1612.373
  H     -891.863    -472.800    1612.747
  H     -893.293    -473.800    1612.524
  H     -900.000    -476.878    1617.084
  H     -899.297    -478.476    1617.001
  H     -899.323    -477.458    1615.581

 3  4  5  6  7  8  9  10  11  12  13  24  27  28  29  30  32 0
 6-311+G(2d,p)
 ****
 34  35 0
 6-311+G(2d,p)
 ****
 1  2  14  15  16  17  18  19  20  21  22  23  25  26 0
 3-21G
 ****
 31  33  36  37  38  39  40  41  42  43  44  45  46 0
 3-21G
 ****


