%nproc=1
%NoSave
%Mem=1900MB
#P OB98/GEN NMR

erre ene a

0 1
  C      -21.960     579.234    -889.958
  O      -21.405     579.074    -891.258
  H      -21.226     579.746    -889.328
  H      -22.176     578.255    -889.528
  H      -22.869     579.834    -890.008
  P      -22.360     578.424    -892.368
  C      -22.259     580.538    -893.878
  O      -21.984     579.144    -893.768
  C      -21.227     581.209    -894.788
  O      -19.957     581.309    -894.078
  C      -20.962     580.458    -896.108
  O      -20.720     581.437    -897.128
  C      -19.660     579.733    -895.828
  O      -18.960     579.370    -897.018
  C      -18.950     580.774    -894.958
  N      -13.931     580.771    -894.558
  C      -14.764     581.518    -895.378
  N      -14.177     582.389    -896.218
  N      -16.068     581.404    -895.368
  C      -16.526     580.521    -894.448
  C      -15.803     579.722    -893.578
  C      -14.362     579.835    -893.618
  O      -13.562     579.200    -892.928
  N      -16.635     578.939    -892.828
  C      -17.855     579.253    -893.238
  N      -17.836     580.209    -894.218
  O      -23.793     579.033    -892.008
  O      -22.378     576.928    -892.408
  H      -19.431     578.610    -897.418
  H      -24.283     578.416    -891.418
  H      -12.930     580.891    -894.608
  H      -18.772     578.814    -892.858
  H      -18.542     581.595    -895.558
  H      -19.849     578.812    -895.248
  H      -13.177     582.557    -896.248
  H      -21.770     579.795    -896.418
  H      -14.767     582.959    -896.808
  H      -21.562     582.242    -894.988
  H      -22.205     580.988    -892.878
  H      -23.269     580.675    -894.278
  P      -20.767     580.955    -898.658
  C      -22.702     582.558    -899.338
  O      -21.353     582.159    -899.548
  O      -21.980     579.902    -898.648
  O      -19.504     580.335    -899.158
  H      -21.842     579.238    -899.358
  H      -22.943     583.364    -900.000
  H      -22.825     582.880    -898.325
  H      -23.353     581.731    -899.532

 6  7  8  9  10  11  12  13  14  15  26  29  33  34 0
 6-311+G(2d,p)
 ****
 36  38  39  40  41 0
 6-311+G(2d,p)
 ****
 1  2  3  4  5  16  17  18  19  20  21  22  23  24  25 0
 3-21G
 ****
 27  28  30  31  32  35  37  42  43  44  45  46  47 0
 3-21G
 ****
 48  49 0
 3-21G
 ****


