%nproc=1
%NoSave
%Mem=1900MB
#P OB98/GEN NMR

erre ene a

0 1
  C      -40.044     -63.124      56.160
  O      -40.627     -64.399      56.292
  P      -41.970     -64.843      55.553
  C      -44.511     -64.910      56.175
  O      -43.220     -64.372      56.440
  C      -45.593     -64.172      56.976
  O      -45.497     -62.754      56.682
  C      -47.007     -64.620      56.566
  O      -47.902     -64.787      57.657
  C      -47.389     -63.602      55.497
  O      -48.787     -63.510      55.273
  C      -46.709     -62.337      56.018
  N      -48.411     -59.421      52.215
  C      -49.131     -60.112      53.170
  N      -50.466     -60.179      52.977
  N      -48.581     -60.711      54.198
  C      -47.228     -60.656      54.198
  C      -46.409     -59.999      53.308
  C      -47.029     -59.316      52.197
  O      -46.424     -58.787      51.264
  N      -45.082     -60.217      53.581
  C      -45.097     -61.032      54.618
  N      -46.379     -61.353      55.006
  O      -41.995     -66.221      54.977
  O      -42.023     -63.796      54.320
  H      -48.922     -62.980      54.465
  H      -42.425     -64.267      53.562
  H      -48.886     -59.050      51.400
  H      -44.218     -61.443      55.103
  H      -47.333     -61.822      56.748
  H      -46.935     -63.930      54.554
  H      -50.896     -59.855      52.120
  H      -46.975     -65.617      56.111
  H      -50.976     -60.877      53.512
  H      -45.403     -64.307      58.046
  H      -44.473     -65.964      56.475
  H      -44.730     -64.874      55.104
  P      -49.410     -65.314      57.644
  C      -51.713     -64.511      56.847
  O      -50.340     -64.194      56.975
  O      -49.872     -65.291      59.175
  O      -49.586     -66.684      57.074
  H      -50.419     -66.077      59.366
  H      -52.173     -63.808      56.145
  H      -52.206     -64.414      57.819
  H      -51.844     -65.528      56.468
  H      -39.154     -63.076      56.752
  H      -40.736     -62.379      56.494
  H      -39.799     -62.948      55.133

 3  4  5  6  7  8  9  10  11  12  23  26  30  31 0
 6-311+G(2d,p)
 ****
 33  35  36  37  38 0
 6-311+G(2d,p)
 ****
 1  2  13  14  15  16  17  18  19  20  21  22  24  25 0
 3-21G
 ****
 27  28  29  32  34  39  40  41  42  43  44  45  46  47  48  49 0
 3-21G
 ****


