%nproc=1
%NoSave
%Mem=1900MB
#P OB98/GEN NMR

erre ene a

0 1
  C       43.158      25.457      -5.685
  O       42.611      26.284      -6.695
  P       41.248      27.080      -6.428
  C       39.825      24.934      -6.050
  O       40.047      26.094      -6.820
  C       38.458      24.313      -6.363
  O       38.258      23.198      -5.460
  C       37.268      25.242      -6.147
  O       36.143      24.711      -6.852
  C       37.040      25.115      -4.658
  O       35.729      25.519      -4.275
  C       37.379      23.626      -4.393
  N       38.035      23.445      -3.085
  C       37.670      22.322      -2.348
  O       36.900      21.463      -2.775
  N       38.154      22.262      -1.070
  C       38.908      23.224      -0.467
  O       39.071      23.306       0.744
  C       39.455      24.256      -1.363
  C       38.979      24.334      -2.608
  O       41.241      28.174      -7.595
  O       41.139      27.705      -5.080
  H       35.098      24.965      -4.792
  H       41.591      29.022      -7.264
  H       37.773      21.524      -0.491
  H       40.177      24.952      -0.959
  H       39.325      25.118      -3.276
  H       36.478      23.002      -4.408
  H       37.752      25.761      -4.130
  H       37.448      26.279      -6.446
  H       38.462      23.922      -7.387
  H       39.901      25.186      -4.988
  H       40.606      24.191      -6.248
  P       35.631      25.500      -8.150
  C       33.868      26.945      -6.968
  O       34.099      25.882      -7.870
  O       35.901      24.844      -9.463
  O       36.375      26.916      -8.029
  H       36.378      27.361      -8.896
  H       32.931      27.439      -7.237
  H       34.677      27.680      -6.999
  H       33.781      26.545      -5.955
  H       44.063      25.010      -6.041
  H       42.456      24.690      -5.433
  H       43.369      26.046      -4.817

 3  4  5  6  7  8  9  10  11  12  13  23  28  29  30  31  32 0
 6-311+G(2d,p)
 ****
 33  34 0
 6-311+G(2d,p)
 ****
 1  2  14  15  16  17  18  19  20  21  22  24  25  26  27 0
 3-21G
 ****
 35  36  37  38  39  40  41  42  43  44  45 0
 3-21G
 ****


