%nproc=1
%NoSave
%Mem=1900MB
#P OB98/GEN NMR

erre ene a

0 1
  C       62.380     -46.929     -30.126
  O       62.179     -46.813     -31.520
  H       63.172     -46.237     -29.827
  H       62.692     -47.947     -29.880
  H       61.467     -46.677     -29.581
  P       60.919     -47.594     -32.133
  C       59.423     -45.496     -31.828
  O       59.931     -46.475     -32.721
  C       59.134     -44.199     -32.577
  O       60.368     -43.562     -32.975
  C       58.318     -44.380     -33.853
  O       56.926     -44.466     -33.582
  C       58.657     -43.093     -34.586
  O       57.908     -41.999     -34.018
  C       60.149     -42.935     -34.270
  N       61.985     -42.613     -38.984
  C       61.078     -41.803     -38.327
  N       60.582     -40.763     -39.030
  N       60.688     -41.996     -37.094
  C       61.258     -43.081     -36.518
  C       62.170     -43.957     -37.063
  C       62.598     -43.727     -38.424
  O       63.416     -44.400     -39.045
  N       62.528     -44.929     -36.168
  C       61.822     -44.655     -35.089
  N       61.029     -43.546     -35.252
  O       60.143     -48.123     -30.833
  O       61.249     -48.714     -33.060
  H       56.973     -42.148     -34.249
  H       59.756     -48.998     -31.033
  H       62.243     -42.426     -39.937
  H       61.849     -45.223     -34.170
  H       60.448     -41.884     -34.182
  H       58.408     -43.134     -35.647
  H       60.802     -40.587     -39.998
  H       58.672     -45.237     -34.438
  H       59.942     -40.137     -38.560
  H       58.622     -43.517     -31.885
  H       60.165     -45.303     -31.046
  H       58.508     -45.876     -31.366
  P       55.997     -45.177     -34.683
  C       55.989     -47.376     -33.302
  O       55.218     -46.342     -33.902
  O       57.052     -45.977     -35.582
  O       55.156     -44.250     -35.492
  H       56.677     -46.142     -36.469
  H       55.336     -48.075     -32.822
  H       56.652     -46.952     -32.578
  H       56.558     -47.879     -34.055

 6  7  8  9  10  11  12  13  14  15  26  29  33  34 0
 6-311+G(2d,p)
 ****
 36  38  39  40  41 0
 6-311+G(2d,p)
 ****
 1  2  3  4  5  16  17  18  19  20  21  22  23  24  25 0
 3-21G
 ****
 27  28  30  31  32  35  37  42  43  44  45  46  47 0
 3-21G
 ****
 48  49 0
 3-21G
 ****


