%nproc=1
%NoSave
%Mem=1900MB
#P OB98/GEN NMR

erre ene a

0 1
  C      249.478    -168.051     124.634
  O      249.674    -167.842     123.253
  H      250.448    -167.990     125.137
  H      249.062    -169.049     124.798
  H      248.813    -167.300     125.064
  P      248.419    -167.428     122.354
  C      248.840    -164.883     122.286
  O      247.994    -165.929     122.745
  C      248.081    -163.879     121.417
  O      247.582    -164.540     120.234
  C      246.867    -163.285     122.136
  O      247.151    -162.142     122.924
  C      245.953    -162.929     120.965
  O      246.227    -161.608     120.469
  C      246.303    -163.983     119.910
  N      241.802    -165.491     118.006
  C      242.368    -164.229     117.998
  N      241.620    -163.251     117.445
  N      243.546    -163.967     118.501
  C      244.128    -165.026     119.106
  C      243.656    -166.315     119.197
  C      242.385    -166.617     118.574
  O      241.848    -167.719     118.538
  N      244.505    -167.114     119.925
  C      245.441    -166.284     120.345
  N      245.298    -165.028     119.808
  O      247.218    -168.297     122.967
  O      248.563    -167.692     120.885
  H      245.840    -161.534     119.577
  H      246.580    -168.517     122.263
  H      240.906    -165.642     117.578
  H      246.266    -166.554     120.996
  H      246.395    -163.535     118.912
  H      244.903    -162.937     121.274
  H      240.676    -163.381     117.121
  H      246.365    -164.046     122.740
  H      241.913    -162.282     117.587
  H      248.770    -163.097     121.081
  H      249.631    -165.356     121.703
  H      249.312    -164.376     123.132
  P      246.276    -161.799     124.218
  C      248.120    -162.886     125.740
  O      246.753    -162.738     125.413
  O      244.833    -162.380     123.842
  O      246.219    -160.353     124.588
  H      244.248    -161.670     123.524
  H      248.218    -163.557     126.568
  H      248.529    -161.933     126.003
  H      248.648    -163.280     124.897

 6  7  8  9  10  11  12  13  14  15  26  29  33  34 0
 6-311+G(2d,p)
 ****
 36  38  39  40  41 0
 6-311+G(2d,p)
 ****
 1  2  3  4  5  16  17  18  19  20  21  22  23  24  25 0
 3-21G
 ****
 27  28  30  31  32  35  37  42  43  44  45  46  47 0
 3-21G
 ****
 48  49 0
 3-21G
 ****


