%nproc=1
%NoSave
%Mem=1900MB
#P OB98/GEN NMR

erre ene a

0 1
  C     -288.759     242.550    -579.069
  O     -290.028     242.516    -578.438
  H     -287.998     242.758    -578.313
  H     -288.735     243.331    -579.828
  H     -288.543     241.577    -579.529
  P     -291.289     242.198    -579.382
  C     -292.015     240.203    -577.864
  O     -292.372     241.459    -578.451
  C     -293.278     239.467    -577.440
  O     -293.808     240.037    -576.217
  C     -294.427     239.550    -578.454
  O     -294.244     238.649    -579.548
  C     -295.617     239.207    -577.566
  O     -295.782     237.788    -577.417
  C     -295.247     239.845    -576.230
  N     -299.532     242.017    -574.512
  C     -299.114     240.726    -574.532
  N     -297.951     240.226    -574.991
  C     -297.165     241.225    -575.459
  C     -297.459     242.584    -575.497
  C     -298.710     242.969    -574.993
  N     -299.149     244.288    -574.992
  N     -296.410     243.285    -576.083
  C     -295.507     242.377    -576.385
  N     -295.915     241.110    -576.003
  O     -290.747     241.033    -580.332
  O     -291.805     243.362    -580.159
  H     -296.537     237.679    -576.791
  H     -290.491     241.414    -581.195
  H     -299.819     239.994    -574.112
  H     -294.555     242.559    -576.852
  H     -295.482     239.186    -575.380
  H     -296.544     239.599    -577.998
  H     -294.529     240.585    -578.809
  H     -293.025     238.410    -577.222
  H     -291.380     240.372    -576.980
  H     -291.457     239.614    -578.604
  H     -300.077     244.473    -574.690
  H     -298.579     244.986    -575.458
  P     -295.315     238.732    -580.730
  C     -293.465     239.415    -582.453
  O     -294.517     238.516    -582.112
  O     -295.741     240.278    -580.785
  O     -296.508     237.829    -580.557
  H     -296.688     240.349    -581.020
  H     -293.044     239.131    -583.395
  H     -292.707     239.380    -581.699
  H     -293.854     240.409    -582.522

 6  7  8  9  10  11  12  13  14  15  25  28  32  33  34  35 0
 6-311+G(2d,p)
 ****
 36  37  40 0
 6-311+G(2d,p)
 ****
 1  2  3  4  5  16  17  18  19  20  21  22  23  24 0
 3-21G
 ****
 26  27  29  30  31  38  39 41  42  43  44  45  46  47  48 0
 3-21G
 ****


