%nproc=1
%NoSave
%Mem=1900MB
#P OB98/GEN NMR

erre ene a

0 1
  C     -176.772     117.387     359.047
  O     -177.555     118.173     359.946
  P     -176.780     119.350     360.717
  C     -177.416     121.569     361.908
  O     -177.858     120.468     361.130
  C     -178.520     122.625     362.038
  O     -178.969     123.105     360.749
  C     -179.763     122.114     362.751
  O     -179.550     122.121     364.158
  C     -180.823     123.117     362.298
  O     -180.791     124.304     363.108
  C     -180.380     123.435     360.858
  N     -183.770     123.955     357.117
  C     -183.347     124.877     358.070
  N     -183.891     126.107     357.996
  N     -182.479     124.597     359.003
  C     -182.016     123.320     358.951
  C     -182.331     122.338     358.043
  C     -183.305     122.647     357.012
  O     -183.689     121.883     356.137
  N     -181.614     121.187     358.281
  C     -180.964     121.442     359.402
  N     -181.120     122.749     359.812
  O     -175.917     120.048     359.570
  O     -175.915     118.860     361.830
  H     -179.975     124.802     362.914
  H     -174.970     119.857     359.700
  H     -184.450     124.216     356.430
  H     -180.347     120.741     359.929
  H     -180.468     124.506     360.639
  H     -181.827     122.706     362.384
  H     -184.574     126.389     357.293
  H     -180.015     121.104     362.392
  H     -183.598     126.796     358.674
  H     -178.096     123.480     362.585
  H     -176.524     122.014     361.456
  H     -177.115     121.200     362.897
  P     -179.891     120.785     364.971
  C     -179.417     120.515     367.512
  O     -180.125     121.202     366.506
  O     -178.485     120.007     364.992
  O     -180.962     119.942     364.367
  H     -178.635     119.062     364.796
  H     -179.251     121.188     368.356
  H     -178.439     120.156     367.156
  H     -180.013     119.661     367.855
  H     -177.390     116.640     358.595
  H     -175.978     116.914     359.586
  H     -176.361     118.018     358.287

 3  4  5  6  7  8  9  10  11  12  23  26  30  31 0
 6-311+G(2d,p)
 ****
 33  35  36  37  38 0
 6-311+G(2d,p)
 ****
 1  2  13  14  15  16  17  18  19  20  21  22  24  25 0
 3-21G
 ****
 27  28  29  32  34  39  40  41  42  43  44  45  46  47  48  49 0
 3-21G
 ****


