%nproc=1
%NoSave
%Mem=1900MB
#P OB98/GEN NMR

erre ene a

0 1
  C       51.232     -28.910     -30.341
  O       50.094     -28.972     -31.177
  H       51.696     -29.897     -30.262
  H       51.955     -28.217     -30.780
  H       50.953     -28.549     -29.347
  P       48.920     -29.968     -30.726
  C       49.470     -31.697     -32.592
  O       49.402     -31.426     -31.199
  C       48.757     -33.013     -32.883
  O       49.486     -34.114     -32.295
  C       47.349     -33.091     -32.304
  O       46.387     -32.452     -33.125
  C       47.138     -34.595     -32.276
  O       46.845     -35.070     -33.602
  C       48.520     -35.093     -31.824
  N       47.371     -37.994     -27.766
  C       47.153     -38.165     -29.088
  N       47.509     -37.357     -30.106
  C       48.164     -36.278     -29.650
  C       48.466     -35.971     -28.333
  C       48.034     -36.887     -27.359
  N       48.226     -36.700     -26.008
  N       49.132     -34.763     -28.256
  C       49.244     -34.362     -29.506
  N       48.646     -35.227     -30.382
  O       47.728     -29.638     -31.742
  O       48.508     -29.888     -29.295
  H       46.876     -36.045     -33.569
  H       46.891     -30.024     -31.421
  H       46.618     -39.070     -29.363
  H       49.737     -33.452     -29.826
  H       48.784     -36.061     -32.264
  H       46.304     -34.893     -31.636
  H       47.315     -32.707     -31.279
  H       48.745     -33.165     -33.970
  H       50.521     -31.773     -32.890
  H       47.751     -37.334     -25.384
  H       48.585     -35.814     -25.687
  H       48.997     -30.881     -33.145
  P       45.034     -31.944     -32.422
  C       43.599     -33.992     -33.125
  O       44.191     -33.259     -32.058
  O       44.216     -31.307     -33.639
  O       45.240     -30.972     -31.306
  H       43.667     -30.559     -33.336
  H       43.074     -34.836     -32.729
  H       44.364     -34.329     -33.793
  H       42.915     -33.362     -33.654

 6  7  8  9  10  11  12  13  14  15  25  28  32  33  34  35 0
 6-311+G(2d,p)
 ****
 36  39  40 0
 6-311+G(2d,p)
 ****
 1  2  3  4  5  16  17  18  19  20  21  22  23  24 0
 3-21G
 ****
 26  27  29  30  31  37  38  41  42  43  44  45  46  47 0
 3-21G
 ****
 48 0
 3-21G
 ****


