%nproc=1
%NoSave
%Mem=1900MB
#P OB98/GEN NMR

erre ene a

0 1
  C     -402.413    -893.977     603.953
  O     -403.616    -893.927     604.687
  H     -401.752    -893.167     604.307
  H     -402.603    -893.807     602.891
  H     -401.908    -894.927     604.099
  P     -404.788    -894.977     604.347
  C     -404.889    -896.077     606.669
  O     -405.562    -895.217     605.733
  C     -405.379    -895.807     608.087
  O     -404.709    -894.627     608.622
  C     -406.900    -895.567     608.210
  O     -407.435    -896.347     609.266
  C     -406.989    -894.077     608.539
  O     -408.207    -893.737     609.207
  C     -405.706    -893.887     609.346
  N     -405.363    -892.487     609.483
  C     -405.733    -891.867     610.689
  O     -406.318    -892.507     611.560
  N     -405.483    -890.517     610.848
  C     -404.955    -889.837     609.882
  N     -404.760    -888.517     610.098
  C     -404.571    -890.437     608.582
  C     -404.791    -891.757     608.459
  O     -404.331    -896.217     603.647
  O     -405.852    -894.137     603.494
  H     -408.279    -892.747     609.247
  H     -406.392    -894.757     602.956
  H     -404.137    -889.827     607.816
  H     -404.542    -892.287     607.548
  H     -405.799    -894.327     610.349
  H     -406.946    -893.487     607.616
  H     -407.434    -895.807     607.289
  H     -405.078    -896.657     608.728
  H     -405.045    -888.127     611.001
  H     -403.816    -895.897     606.587
  H     -404.379    -887.877     609.408
  H     -405.121    -897.117     606.391
  P     -409.040    -896.507     609.290
  C     -408.983    -899.087     609.017
  O     -409.370    -897.997     609.815
  O     -409.423    -896.547     607.730
  O     -409.752    -895.397     610.014
  H     -409.889    -895.727     607.493
  H     -409.269    -900.000     609.497
  H     -407.921    -899.072     608.883
  H     -409.464    -899.020     608.063

 6  7  8  9  10  11  12  13  14  15  16  26  30  31  32  33  35 0
 6-311+G(2d,p)
 ****
 37  38 0
 6-311+G(2d,p)
 ****
 1  2  3  4  5  17  18  19  20  21  22  23  24  25 0
 3-21G
 ****
 27  28  29  34  36  39  40  41  42  43  44  45  46 0
 3-21G
 ****


