%nproc=1
%NoSave
%Mem=1900MB
#P OB98/GEN NMR

erre ene a

0 1
  C      708.719      -6.555    -303.970
  O      707.370      -6.820    -304.304
  H      709.264      -6.215    -304.858
  H      708.748      -5.760    -303.219
  H      709.196      -7.444    -303.555
  P      707.108      -7.973    -305.392
  C      705.616      -6.269    -306.666
  O      706.679      -7.212    -306.738
  C      705.643      -5.364    -307.901
  O      706.784      -4.481    -307.846
  C      705.771      -6.118    -309.220
  O      704.521      -6.625    -309.669
  C      706.267      -5.005    -310.127
  O      705.167      -4.143    -310.490
  C      707.252      -4.268    -309.211
  N      710.948      -5.571    -312.495
  C      709.676      -5.174    -312.676
  N      708.758      -4.842    -311.755
  C      709.259      -4.965    -310.519
  C      710.531      -5.378    -310.164
  C      711.413      -5.686    -311.224
  N      712.708      -6.111    -311.024
  N      710.680      -5.424    -308.789
  C      709.510      -5.005    -308.325
  N      708.612      -4.737    -309.330
  O      705.738      -8.652    -304.902
  O      708.208      -8.970    -305.561
  H      704.745      -3.860    -309.656
  H      705.652      -9.541    -305.285
  H      709.359      -5.094    -313.723
  H      709.266      -4.899    -307.279
  H      707.257      -3.182    -309.389
  H      706.704      -5.373    -311.063
  H      706.536      -6.908    -309.170
  H      704.737      -4.741    -307.890
  H      705.738      -5.653    -305.766
  H      713.188      -6.477    -311.839
  H      713.006      -6.339    -310.095
  H      704.659      -6.800    -306.606
  P      704.556      -7.734    -310.837
  C      702.023      -7.367    -311.334
  O      703.363      -7.353    -311.840
  O      704.018      -9.057    -310.100
  O      705.898      -7.942    -311.469
  H      704.365      -9.849    -310.531
  H      701.344      -7.093    -312.115
  H      701.939      -6.669    -310.527
  H      701.785      -8.349    -310.982

 6  7  8  9  10  11  12  13  14  15  25  28  32  33  34  35 0
 6-311+G(2d,p)
 ****
 36  39  40 0
 6-311+G(2d,p)
 ****
 1  2  3  4  5  16  17  18  19  20  21  22  23  24 0
 3-21G
 ****
 26  27  29  30  31  37  38  41  42  43  44  45  46  47 0
 3-21G
 ****
 48 0
 3-21G
 ****


