%nproc=1
%NoSave
%Mem=1900MB
#P OB98/GEN NMR

erre ene a

0 1
  C       31.682     -63.938      19.372
  O       32.412     -65.165      19.327
  P       33.263     -65.549      20.633
  C       31.480     -66.871      21.971
  O       32.691     -66.924      21.232
  C       30.980     -68.271      22.351
  O       30.445     -68.964      21.193
  C       32.069     -69.164      22.951
  O       31.444     -70.009      23.920
  C       32.501     -70.015      21.772
  O       33.145     -71.210      22.205
  C       31.153     -70.214      21.057
  N       31.297     -70.607      19.657
  C       31.257     -71.974      19.374
  O       31.178     -72.796      20.289
  N       31.352     -72.382      18.068
  C       31.525     -71.504      17.130
  N       31.615     -71.972      15.855
  C       31.632     -70.055      17.389
  C       31.506     -69.683      18.660
  O       32.811     -64.449      21.705
  O       34.741     -65.520      20.412
  H       32.591     -71.618      22.906
  H       33.596     -64.043      22.117
  H       31.797     -69.362      16.578
  H       31.567     -68.645      18.950
  H       30.560     -70.988      21.563
  H       33.196     -69.456      21.134
  H       32.887     -68.606      23.416
  H       30.161     -68.155      23.071
  H       31.529     -72.973      15.716
  H       30.710     -66.366      21.384
  H       31.752     -71.380      15.051
  H       31.634     -66.254      22.862
  P       31.910     -69.885      25.449
  C       29.662     -69.054      26.374
  O       30.576     -70.132      26.304
  O       32.093     -68.296      25.600
  O       33.135     -70.615      25.882
  H       32.448     -68.090      26.483
  H       28.754     -69.397      26.876
  H       29.402     -68.708      25.370
  H       30.094     -68.235      26.955
  H       31.161     -63.799      18.448
  H       32.360     -63.125      19.525
  H       30.978     -63.971      20.177

 3  4  5  6  7  8  9  10  11  12  13  21  23  27  28  29  30  32 0
 6-311+G(2d,p)
 ****
 34  35 0
 6-311+G(2d,p)
 ****
 1  2  14  15  16  17  18  19  20  22  24  25  26 0
 3-21G
 ****
 31  33  36  37  38  39  40  41  42  43  44  45  46 0
 3-21G
 ****


