%nproc=1
%NoSave
%Mem=1900MB
#P OB98/GEN NMR

erre ene a

0 1
  C       20.025     161.050     124.892
  O       20.004     160.365     123.651
  P       18.618     160.039     122.907
  C       19.166     157.689     123.824
  O       18.149     158.626     123.502
  C       18.764     156.893     125.067
  O       18.933     157.715     126.240
  C       17.309     156.444     125.082
  O       17.109     155.331     124.224
  C       17.107     156.172     126.570
  O       17.657     154.893     126.924
  C       17.944     157.296     127.215
  N       17.132     158.427     127.658
  C       16.112     158.140     128.568
  O       15.923     156.992     128.970
  N       15.337     159.171     129.032
  C       15.548     160.384     128.611
  N       14.794     161.377     129.160
  C       16.575     160.720     127.613
  C       17.328     159.706     127.188
  O       18.673     160.101     121.418
  O       17.568     161.054     123.555
  H       18.621     155.017     127.018
  H       17.521     161.927     123.095
  H       16.704     161.740     127.283
  H       18.121     159.874     126.469
  H       18.507     156.907     128.072
  H       16.057     156.181     126.878
  H       16.653     157.263     124.767
  H       19.435     156.026     125.155
  H       14.226     161.126     129.962
  H       20.094     158.236     124.036
  H       15.077     162.345     129.109
  H       19.334     157.024     122.970
  P       15.885     155.401     123.191
  C       14.559     153.441     124.253
  O       14.611     154.832     123.979
  O       16.240     154.259     122.126
  O       15.699     156.737     122.548
  H       16.616     154.658     121.317
  H       13.770     153.258     124.986
  H       15.514     153.094     124.668
  H       14.327     152.890     123.341
  H       21.038     161.168     125.217
  H       19.480     160.486     125.620
  H       19.574     162.013     124.775

 3  4  5  6  7  8  9  10  11  12  13  23  27  28  29  30  32 0
 6-311+G(2d,p)
 ****
 34  35 0
 6-311+G(2d,p)
 ****
 1  2  14  15  16  17  18  19  20  21  22  24  25  26 0
 3-21G
 ****
 31  33  36  37  38  39  40  41  42  43  44  45  46 0
 3-21G
 ****


