%nproc=1
%NoSave
%Mem=1900MB
#P OB98/GEN NMR

erre ene a

0 1
  C      103.341     168.209      32.355
  O      104.681     168.062      32.779
  P      104.989     167.106      34.032
  C      106.458     168.859      35.332
  O      106.377     167.609      34.664
  C      107.834     169.021      35.986
  O      107.859     168.259      37.227
  C      109.008     168.551      35.126
  O      110.115     169.421      35.395
  C      109.290     167.157      35.671
  O      110.609     166.710      35.389
  C      108.996     167.373      37.160
  N      108.723     166.130      37.887
  C      109.691     165.126      37.852
  O      110.748     165.213      37.223
  N      109.385     163.981      38.548
  C      108.210     163.722      39.194
  O      107.984     162.674      39.785
  C      107.214     164.807      39.156
  C      107.509     165.935      38.527
  O      105.374     165.741      33.289
  O      103.859     167.000      35.002
  H      105.859     165.878      32.458
  H      111.233     167.411      35.665
  H      110.083     163.255      38.564
  H      106.257     164.627      39.650
  H      106.790     166.745      38.477
  H      109.837     167.896      37.636
  H      108.582     166.443      35.228
  H      108.779     168.559      34.053
  H      107.958     170.081      36.256
  H      105.683     168.903      36.106
  H      106.261     169.665      34.614
  P      110.210     170.806      34.563
  C      112.409     170.118      33.310
  O      111.754     171.023      34.181
  O      109.992     171.859      35.749
  O      109.210     170.949      33.461
  H      110.538     171.685      36.529
  H      113.308     170.611      32.917
  H      111.773     169.833      32.472
  H      112.713     169.230      33.865
  H      103.303     168.873      31.517
  H      102.756     168.611      33.155
  H      102.950     167.254      32.072

 3  4  5  6  7  8  9  10  11  12  13  24  28  29  30  31  32 0
 6-311+G(2d,p)
 ****
 33  34 0
 6-311+G(2d,p)
 ****
 1  2  14  15  16  17  18  19  20  21  22  23  25  26  27 0
 3-21G
 ****
 35  36  37  38  39  40  41  42  43  44  45 0
 3-21G
 ****


