%nproc=1
%NoSave
%Mem=1900MB
#P OB98/GEN NMR

erre ene a

0 1
  C       43.788     -61.669     -64.430
  O       42.810     -62.378     -65.156
  P       43.098     -63.868     -65.672
  C       41.681     -65.834     -66.540
  O       41.668     -64.501     -66.040
  C       40.254     -66.364     -66.656
  O       39.673     -66.590     -65.346
  C       39.287     -65.403     -67.333
  O       39.501     -65.122     -68.698
  C       37.948     -66.011     -66.951
  O       37.613     -67.108     -67.801
  C       38.235     -66.510     -65.512
  N       37.620     -65.648     -64.504
  C       36.236     -65.718     -64.408
  O       35.539     -66.449     -65.112
  N       35.658     -64.888     -63.486
  C       36.312     -63.982     -62.702
  O       35.726     -63.236     -61.928
  C       37.772     -63.943     -62.860
  C       38.353     -64.763     -63.739
  O       43.930     -64.706     -64.761
  O       43.747     -63.637     -67.118
  H       37.422     -66.745     -68.688
  H       43.177     -63.164     -67.749
  H       34.654     -64.913     -63.408
  H       38.323     -63.244     -62.243
  H       39.430     -64.751     -63.875
  H       37.846     -67.526     -65.376
  H       37.134     -65.283     -67.028
  H       39.356     -64.434     -66.820
  H       40.287     -67.330     -67.166
  H       42.240     -66.468     -65.846
  H       42.195     -65.857     -67.506
  P       39.191     -63.698     -69.364
  C       40.420     -62.056     -70.950
  O       40.385     -63.344     -70.374
  O       38.720     -62.618     -68.449
  O       38.004     -64.073     -70.381
  H       37.412     -63.303     -70.474
  H       41.267     -62.005     -71.640
  H       40.554     -61.296     -70.176
  H       39.502     -61.862     -71.511
  H       43.411     -60.700     -64.176
  H       44.669     -61.564     -65.028
  H       44.026     -62.205     -63.535

 3  4  5  6  7  8  9  10  11  12  13  23  28  29  30  31  32 0
 6-311+G(2d,p)
 ****
 33  34 0
 6-311+G(2d,p)
 ****
 1  2  14  15  16  17  18  19  20  21  22  24  25  26  27 0
 3-21G
 ****
 35  36  37  38  39  40  41  42  43  44  45 0
 3-21G
 ****


