%nproc=1
%NoSave
%Mem=1900MB
#P OB98/GEN NMR

erre ene a

0 1
  C       54.822     318.515      61.412
  O       53.952     317.934      60.463
  H       55.546     317.760      61.730
  H       54.266     318.854      62.292
  H       55.367     319.353      60.966
  P       52.718     318.810      59.925
  C       51.441     316.579      60.250
  O       51.649     317.719      59.426
  C       50.799     315.452      59.440
  O       49.532     315.868      58.886
  C       51.610     314.986      58.236
  O       52.740     314.201      58.588
  C       50.553     314.187      57.497
  O       50.362     312.917      58.154
  C       49.312     315.094      57.674
  N       49.088     315.981      56.534
  C       48.142     315.562      55.588
  O       47.548     314.493      55.727
  N       47.926     316.345      54.479
  C       48.601     317.440      54.318
  N       48.378     318.155      53.179
  C       49.586     317.928      55.300
  C       49.783     317.159      56.370
  O       53.050     319.882      58.935
  O       52.017     319.366      61.252
  H       49.732     312.410      57.610
  H       51.251     319.926      60.972
  H       50.128     318.847      55.116
  H       50.509     317.440      57.126
  H       48.409     314.492      57.836
  H       50.816     313.973      56.457
  H       51.908     315.836      57.613
  H       50.594     314.624      60.133
  H       47.724     317.768      52.513
  H       50.798     316.876      61.085
  H       49.045     318.851      52.853
  H       52.395     316.218      60.644
  P       54.200     314.840      58.358
  C       55.163     313.059      56.714
  O       55.182     313.615      58.017
  O       54.632     315.276      59.836
  O       54.267     315.973      57.382
  H       54.407     316.211      60.008
  H       55.871     312.259      56.657
  H       55.419     313.814      56.000
  H       54.184     312.684      56.500

 6  7  8  9  10  11  12  13  14  15  16  26  30  31  32  33  35 0
 6-311+G(2d,p)
 ****
 37  38 0
 6-311+G(2d,p)
 ****
 1  2  3  4  5  17  18  19  20  21  22  23  24  25 0
 3-21G
 ****
 27  28  29  34  36  39  40  41  42  43  44  45  46 0
 3-21G
 ****


