%nproc=1
%NoSave
%Mem=1900MB
#P OB98/GEN NMR

erre ene a

0 1
  C      250.906     575.768    -933.313
  O      249.578     576.009    -932.838
  P      249.249     577.514    -932.394
  C      247.225     577.666    -934.031
  O      247.698     577.804    -932.697
  C      245.747     578.044    -934.127
  O      244.923     577.240    -933.261
  C      245.458     579.490    -933.758
  O      245.772     580.337    -934.851
  C      243.946     579.434    -933.452
  O      243.168     579.548    -934.657
  C      243.813     578.043    -932.826
  N      241.110     579.469    -928.761
  C      240.965     579.835    -930.082
  N      239.936     580.631    -930.350
  N      241.755     579.383    -931.042
  C      242.719     578.571    -930.594
  C      242.976     578.129    -929.311
  C      242.103     578.612    -928.257
  O      242.181     578.324    -927.071
  N      244.041     577.256    -929.269
  C      244.506     577.278    -930.503
  N      243.709     578.001    -931.370
  O      250.009     578.396    -933.521
  O      249.723     577.874    -931.033
  H      243.525     578.925    -935.315
  H      250.777     578.855    -933.125
  H      240.500     579.834    -928.047
  H      245.385     576.741    -930.829
  H      242.895     577.524    -933.183
  H      243.651     580.256    -932.811
  H      239.299     581.007    -929.681
  H      246.020     579.766    -932.861
  H      239.793     580.914    -931.344
  H      245.428     577.854    -935.167
  H      247.377     576.645    -934.395
  H      247.840     578.322    -934.672
  P      246.445     581.743    -934.533
  C      248.076     581.278    -936.508
  O      247.260     582.213    -935.835
  O      247.621     581.355    -933.483
  O      245.540     582.758    -933.932
  H      247.628     582.007    -932.740
  H      248.096     581.534    -937.580
  H      247.659     580.270    -936.421
  H      249.085     581.322    -936.105
  H      251.008     574.736    -933.578
  H      251.609     576.010    -932.544
  H      251.094     576.378    -934.172

 3  4  5  6  7  8  9  10  11  12  23  26  30  31 0
 6-311+G(2d,p)
 ****
 33  35  36  37  38 0
 6-311+G(2d,p)
 ****
 1  2  13  14  15  16  17  18  19  20  21  22  24  25 0
 3-21G
 ****
 27  28  29  32  34  39  40  41  42  43  44  45  46  47  48  49 0
 3-21G
 ****


