%nproc=1
%NoSave
%Mem=1900MB
#P OB98/GEN NMR

erre ene a

0 1
  C     -251.821     -37.429    -505.475
  O     -250.528     -38.024    -505.292
  P     -249.249     -37.620    -506.175
  C     -247.208     -38.078    -504.669
  O     -248.087     -37.095    -505.210
  C     -247.205     -38.051    -503.134
  O     -248.475     -38.494    -502.618
  C     -246.166     -38.960    -502.482
  O     -244.870     -38.391    -502.567
  C     -246.721     -39.072    -501.066
  O     -246.355     -37.933    -500.272
  C     -248.247     -39.081    -501.322
  N     -248.809     -40.424    -501.240
  C     -249.466     -40.755    -500.052
  O     -249.499     -39.953    -499.113
  N     -250.055     -41.992    -499.944
  C     -249.925     -42.851    -500.911
  N     -250.531     -44.063    -500.750
  C     -249.165     -42.575    -502.139
  C     -248.639     -41.352    -502.240
  O     -249.563     -36.701    -507.308
  O     -248.677     -39.012    -506.728
  H     -245.417     -37.752    -500.461
  H     -248.256     -38.855    -507.597
  H     -249.057     -43.328    -502.907
  H     -248.075     -41.063    -503.114
  H     -248.763     -38.441    -500.602
  H     -246.364     -39.959    -500.546
  H     -246.181     -39.945    -502.961
  H     -247.058     -37.010    -502.818
  H     -251.057     -44.211    -499.894
  H     -246.192     -37.870    -505.034
  H     -250.500     -44.796    -501.443
  H     -247.518     -39.065    -505.032
  P     -243.869     -38.864    -503.718
  C     -242.936     -36.646    -504.614
  O     -243.835     -37.720    -504.841
  O     -244.086     -40.249    -504.239
  O     -242.420     -38.733    -503.038
  H     -241.830     -39.417    -503.412
  H     -242.708     -36.168    -505.571
  H     -242.004     -36.999    -504.158
  H     -243.410     -35.910    -503.954
  H     -252.511     -37.854    -504.777
  H     -252.162     -37.616    -506.472
  H     -251.754     -36.373    -505.313

 3  4  5  6  7  8  9  10  11  12  13  23  27  28  29  30  32 0
 6-311+G(2d,p)
 ****
 34  35 0
 6-311+G(2d,p)
 ****
 1  2  14  15  16  17  18  19  20  21  22  24  25  26 0
 3-21G
 ****
 31  33  36  37  38  39  40  41  42  43  44  45  46 0
 3-21G
 ****


