%nproc=1
%NoSave
%Mem=1900MB
#P OB98/GEN NMR

erre ene a

0 1
  C      -56.310     -39.695      50.971
  O      -55.953     -38.307      50.946
  P      -57.132     -37.229      50.844
  C      -56.592     -36.126      53.136
  O      -57.546     -36.802      52.332
  C      -57.213     -35.730      54.478
  O      -58.304     -34.798      54.308
  C      -57.787     -36.906      55.256
  O      -56.782     -37.595      55.988
  C      -58.726     -36.192      56.215
  O      -57.977     -35.649      57.321
  C      -59.286     -35.064      55.341
  N      -64.301     -35.090      55.992
  C      -63.297     -34.657      56.835
  N      -63.687     -34.149      58.024
  N      -62.025     -34.717      56.539
  C      -61.785     -35.230      55.311
  C      -62.692     -35.694      54.387
  C      -64.095     -35.638      54.732
  O      -65.027     -36.019      54.032
  N      -62.066     -36.149      53.257
  C      -60.784     -35.942      53.485
  N      -60.559     -35.402      54.727
  O      -58.382     -38.111      50.369
  O      -56.858     -36.107      49.898
  H      -58.613     -35.156      57.873
  H      -59.007     -37.557      49.867
  H      -65.264     -35.026      56.272
  H      -59.986     -36.165      52.789
  H      -59.435     -34.134      55.902
  H      -59.476     -36.864      56.642
  H      -64.650     -34.027      58.295
  H      -58.355     -37.577      54.601
  H      -62.966     -33.796      58.642
  H      -56.435     -35.245      55.083
  H      -56.222     -35.235      52.622
  H      -55.720     -36.772      53.272
  P      -56.338     -39.045      55.467
  C      -53.907     -38.499      56.195
  O      -54.769     -38.946      55.169
  O      -57.007     -39.120      54.015
  O      -56.770     -40.177      56.334
  H      -57.242     -40.042      53.804
  H      -52.874     -38.649      55.874
  H      -54.074     -39.063      57.116
  H      -54.066     -37.433      56.380
  H      -55.423     -40.290      51.041
  H      -56.837     -39.944      50.074
  H      -56.936     -39.887      51.817

 3  4  5  6  7  8  9  10  11  12  23  26  30  31 0
 6-311+G(2d,p)
 ****
 33  35  36  37  38 0
 6-311+G(2d,p)
 ****
 1  2  13  14  15  16  17  18  19  20  21  22  24  25 0
 3-21G
 ****
 27  28  29  32  34  39  40  41  42  43  44  45  46  47  48  49 0
 3-21G
 ****


