%nproc=1
%NoSave
%Mem=1900MB
#P OB98/GEN NMR

erre ene a

0 1
  C       95.925      22.749    -185.281
  O       95.190      23.104    -186.434
  H       96.832      23.354    -185.209
  H       95.307      22.937    -184.397
  H       96.185      21.688    -185.309
  P       95.916      22.895    -187.849
  C       94.182      21.636    -189.319
  O       95.308      21.540    -188.456
  C       93.147      20.587    -188.928
  O       92.541      20.931    -187.662
  C       91.991      20.448    -189.913
  O       92.331      19.645    -191.029
  C       90.958      19.764    -189.036
  O       91.282      18.368    -188.903
  C       91.158      20.487    -187.696
  N       86.301      22.016    -187.196
  C       86.847      20.795    -187.378
  N       88.149      20.473    -187.506
  C       88.920      21.569    -187.432
  C       88.507      22.879    -187.258
  C       87.123      23.088    -187.130
  N       86.559      24.334    -186.961
  N       89.588      23.738    -187.267
  C       90.636      22.955    -187.411
  N       90.285      21.636    -187.524
  O       97.408      22.476    -187.448
  O       95.880      24.064    -188.775
  H       91.057      17.947    -189.753
  H       98.014      22.638    -188.196
  H       86.144      19.968    -187.427
  H       91.664      23.291    -187.437
  H       91.001      19.827    -186.835
  H       89.947      19.822    -189.440
  H       91.607      21.428    -190.224
  H       93.666      19.629    -188.799
  H       94.503      21.461    -190.349
  H       85.558      24.394    -187.066
  H       87.151      25.145    -187.061
  H       93.755      22.640    -189.241
  P       92.255      20.327    -192.480
  C       94.365      19.290    -193.593
  O       93.769      20.436    -192.991
  O       91.860      21.839    -192.150
  O       91.296      19.681    -193.423
  H       91.391      22.249    -192.901
  H       95.370      19.520    -193.879
  H       93.803      19.009    -194.459
  H       94.370      18.481    -192.893

 6  7  8  9  10  11  12  13  14  15  25  28  32  33  34  35 0
 6-311+G(2d,p)
 ****
 36  39  40 0
 6-311+G(2d,p)
 ****
 1  2  3  4  5  16  17  18  19  20  21  22  23  24 0
 3-21G
 ****
 26  27  29  30  31  37  38  41  42  43  44  45  46  47 0
 3-21G
 ****
 48 0
 3-21G
 ****


