%nproc=1
%NoSave
%Mem=1900MB
#P OB98/GEN NMR

erre ene a

0 1
  C       85.227    -455.095    -273.163
  O       85.130    -453.728    -272.806
  P       86.020    -452.664    -273.601
  C       84.530    -452.378    -275.711
  O       85.745    -452.872    -275.169
  C       84.817    -451.434    -276.883
  O       85.676    -450.344    -276.426
  C       85.523    -452.107    -278.068
  O       85.051    -451.473    -279.267
  C       86.977    -451.738    -277.837
  O       87.776    -451.853    -279.002
  C       86.809    -450.307    -277.313
  N       88.006    -449.807    -276.637
  C       88.994    -449.233    -277.430
  O       88.920    -449.128    -278.653
  N       90.127    -448.835    -276.772
  C       90.402    -449.025    -275.451
  O       91.484    -448.749    -274.948
  C       89.320    -449.635    -274.660
  C       88.191    -449.992    -275.280
  O       87.513    -453.213    -273.403
  O       85.880    -451.256    -273.131
  H       87.388    -451.276    -279.684
  H       87.969    -452.714    -272.701
  H       90.852    -448.404    -277.330
  H       89.493    -449.785    -273.603
  H       87.387    -450.463    -274.725
  H       86.551    -449.633    -278.137
  H       87.401    -452.397    -277.070
  H       85.365    -453.188    -278.121
  H       83.870    -450.985    -277.207
  H       83.985    -451.834    -274.939
  H       83.906    -453.218    -276.036
  P       84.720    -452.408    -280.530
  C       82.211    -452.950    -280.040
  O       83.548    -453.397    -280.074
  O       86.025    -453.338    -280.562
  O       84.498    -451.650    -281.797
  H       86.292    -453.642    -279.679
  H       82.006    -452.229    -280.834
  H       82.012    -452.484    -279.070
  H       81.546    -453.808    -280.161
  H       84.574    -455.673    -272.543
  H       86.235    -455.428    -273.028
  H       84.945    -455.217    -274.188

 3  4  5  6  7  8  9  10  11  12  13  23  28  29  30  31  32 0
 6-311+G(2d,p)
 ****
 33  34 0
 6-311+G(2d,p)
 ****
 1  2  14  15  16  17  18  19  20  21  22  24  25  26 0
 3-21G
 ****
 27  35  36  37  38  39  40  41  42  43  44  45 0
 3-21G
 ****


