%nproc=1
%NoSave
%Mem=1900MB
#P OB98/GEN NMR

erre ene a

0 1
  C      730.592     -84.041     250.330
  O      731.324     -83.049     249.643
  H      729.914     -83.581     251.058
  H      730.002     -84.608     249.605
  H      731.275     -84.727     250.841
  P      732.180     -82.040     250.550
  C      732.969     -80.924     248.342
  O      732.438     -80.732     249.650
  C      733.182     -79.578     247.662
  O      731.909     -78.968     247.345
  C      733.926     -78.543     248.503
  O      735.329     -78.765     248.511
  C      733.559     -77.264     247.763
  O      734.411     -77.115     246.604
  C      732.117     -77.531     247.323
  N      728.981     -73.496     247.916
  C      729.850     -73.830     246.930
  N      730.661     -74.909     246.846
  C      730.498     -75.712     247.908
  C      729.644     -75.515     248.989
  C      728.865     -74.336     248.966
  N      727.990     -74.005     249.983
  N      729.730     -76.552     249.883
  C      730.623     -77.372     249.364
  N      731.120     -76.906     248.170
  O      733.624     -82.731     250.622
  O      731.628     -81.776     251.913
  H      734.219     -76.240     246.223
  H      734.011     -82.568     251.504
  H      729.907     -73.131     246.099
  H      730.932     -78.312     249.803
  H      731.941     -77.202     246.293
  H      733.688     -76.361     248.373
  H      733.522     -78.501     249.525
  H      733.711     -79.758     246.715
  H      732.271     -81.519     247.749
  H      727.322     -73.267     249.823
  H      727.900     -74.648     250.771
  H      733.919     -81.461     248.425
  P      736.217     -77.886     249.519
  C      738.269     -78.383     248.014
  O      737.482     -77.393     248.664
  O      736.848     -78.987     250.506
  O      735.464     -76.837     250.270
  H      737.061     -78.579     251.367
  H      739.071     -77.911     247.486
  H      737.659     -78.927     247.323
  H      738.669     -79.056     248.743

 6  7  8  9  10  11  12  13  14  15  25  28  32  33  34  35 0
 6-311+G(2d,p)
 ****
 36  39  40 0
 6-311+G(2d,p)
 ****
 1  2  3  4  5  16  17  18  19  20  21  22  23  24 0
 3-21G
 ****
 26  27  29  30  31  37  38  41  42  43  44  45  46  47  48 0
 3-21G
 ****


