%nproc=1
%NoSave
%Mem=1900MB
#P OB98/GEN NMR

erre ene a

0 1
  C      -58.990      -7.838     159.005
  O      -58.667      -8.505     157.792
  P      -59.786      -9.463     157.150
  C      -59.208      -8.319     154.892
  O      -59.441      -9.539     155.585
  C      -58.577      -8.589     153.529
  O      -59.375      -9.535     152.791
  C      -58.458      -7.365     152.634
  O      -57.320      -6.580     152.946
  C      -58.293      -8.020     151.272
  O      -56.935      -8.467     151.106
  C      -59.237      -9.222     151.379
  N      -62.677     -10.806     147.945
  C      -61.424     -11.224     148.222
  N      -60.566     -10.743     149.145
  C      -61.104      -9.698     149.795
  C      -62.354      -9.136     149.594
  C      -63.168      -9.741     148.624
  N      -64.456      -9.332     148.363
  N      -62.551      -8.074     150.448
  C      -61.446      -8.000     151.160
  N      -60.545      -8.966     150.809
  O      -61.104      -8.557     157.194
  O      -59.975     -10.767     157.846
  H      -56.649      -8.827     151.967
  H      -61.899      -9.124     157.179
  H      -61.067     -12.062     147.630
  H      -61.260      -7.275     151.940
  H      -58.832     -10.114     150.888
  H      -58.508      -7.338     150.444
  H      -59.381      -6.772     152.646
  H      -57.590      -9.039     153.698
  H      -58.529      -7.697     155.482
  H      -65.034      -9.928     147.792
  H      -64.885      -8.676     149.006
  H      -60.157      -7.788     154.775
  P      -57.590      -5.069     153.418
  C      -55.245      -5.387     154.490
  O      -56.162      -4.505     153.871
  O      -58.387      -5.256     154.792
  O      -58.345      -4.246     152.429
  H      -58.944      -4.475     154.972
  H      -54.247      -4.943     154.446
  H      -55.219      -6.353     153.978
  H      -55.521      -5.532     155.537
  H      -58.159      -7.239     159.315
  H      -59.210      -8.561     159.762
  H      -59.844      -7.211     158.851

 3  4  5  6  7  8  9  10  11  12  22  25  29  30  31  32 0
 6-311+G(2d,p)
 ****
 33  36  37 0
 6-311+G(2d,p)
 ****
 1  2  13  14  15  16  17  18  19  20  21  23  24  26 0
 3-21G
 ****
 27  28  34  35  38  39  40  41  42  43  44  45  46  47  48 0
 3-21G
 ****


