%nproc=1
%NoSave
%Mem=1900MB
#P OB98/GEN NMR

erre ene a

0 1
  C      134.147      45.640      73.739
  O      133.344      45.076      74.757
  H      133.592      45.611      72.798
  H      135.068      45.063      73.622
  H      134.386      46.679      73.978
  P      134.013      44.971      76.212
  C      134.458      42.427      75.990
  O      133.791      43.459      76.703
  C      134.871      41.304      76.937
  O      135.943      41.735      77.804
  C      133.752      40.800      77.841
  O      132.949      39.844      77.168
  C      134.547      40.196      78.989
  O      135.036      38.883      78.644
  C      135.709      41.189      79.131
  N      135.168      42.331      84.019
  C      135.313      41.106      83.401
  N      135.284      40.016      84.201
  N      135.463      40.955      82.112
  C      135.417      42.124      81.430
  C      135.274      43.400      81.925
  C      135.164      43.554      83.360
  O      135.115      44.617      83.973
  N      135.292      44.329      80.916
  C      135.410      43.613      79.813
  N      135.483      42.269      80.073
  O      133.013      45.810      77.143
  O      135.407      45.489      76.317
  H      135.634      38.956      77.880
  H      133.538      46.298      77.805
  H      135.087      42.389      85.018
  H      135.456      44.018      78.811
  H      136.635      40.691      79.442
  H      133.933      40.071      79.881
  H      134.888      40.045      85.129
  H      133.145      41.632      78.218
  H      135.317      39.117      83.737
  H      135.267      40.485      76.323
  H      135.349      42.847      75.513
  H      133.791      42.033      75.218
  P      131.358      40.033      77.204
  C      130.920      37.523      77.708
  O      130.685      38.621      76.838
  O      131.076      40.929      75.907
  O      130.835      40.693      78.433
  H      130.879      41.846      76.174
  H      130.411      36.658      77.336
  H      130.556      37.759      78.686
  H      131.970      37.325      77.757

 6  7  8  9  10  11  12  13  14  15  26  29  33  34 0
 6-311+G(2d,p)
 ****
 36  38  39  40  41 0
 6-311+G(2d,p)
 ****
 1  2  3  4  5  16  17  18  19  20  21  22  23  24  25 0
 3-21G
 ****
 27  28  30  31  32  35  37  42  43  44  45  46  47 0
 3-21G
 ****
 48  49 0
 3-21G
 ****


