%nproc=1
%NoSave
%Mem=1900MB
#P OB98/GEN NMR

erre ene a

0 1
  C      438.929    -888.668     972.808
  O      438.429    -887.837     971.780
  P      437.088    -886.987     972.100
  C      435.707    -885.219     970.730
  O      436.873    -886.013     970.842
  C      435.991    -883.979     969.848
  O      436.923    -883.113     970.532
  C      436.636    -884.307     968.511
  O      435.701    -884.803     967.572
  C      437.242    -882.940     968.154
  O      436.224    -882.073     967.615
  C      437.715    -882.426     969.530
  N      439.136    -882.590     969.769
  C      439.865    -881.453     970.073
  O      439.332    -880.333     970.136
  N      441.214    -881.622     970.285
  C      441.908    -882.789     970.152
  O      443.115    -882.865     970.308
  C      441.087    -883.958     969.791
  C      439.773    -883.813     969.613
  O      437.611    -886.035     973.263
  O      435.919    -887.851     972.465
  H      438.578    -885.869     973.200
  H      435.900    -882.516     966.814
  H      441.748    -880.788     970.512
  H      441.621    -884.915     969.674
  H      439.167    -884.675     969.365
  H      437.470    -881.365     969.629
  H      438.053    -883.019     967.416
  H      437.462    -885.031     968.641
  H      435.058    -883.442     969.707
  H      435.383    -884.888     971.722
  H      434.902    -885.823     970.282
  P      436.255    -885.114     966.086
  C      436.195    -887.203     964.532
  O      435.754    -886.579     965.733
  O      437.816    -885.282     966.380
  O      435.914    -884.043     965.097
  H      438.012    -885.802     967.182
  H      436.066    -888.285     964.629
  H      437.260    -886.988     964.335
  H      435.596    -886.853     963.693
  H      439.811    -889.168     972.465
  H      438.188    -889.393     973.073
  H      439.167    -888.072     973.664

 3  4  5  6  7  8  9  10  11  12  13  24  28  29  30  31  32 0
 6-311+G(2d,p)
 ****
 33  34 0
 6-311+G(2d,p)
 ****
 1  2  14  15  16  17  18  19  20  21  22  23  25  26  27 0
 3-21G
 ****
 35  36  37  38  39  40  41  42  43  44  45 0
 3-21G
 ****


