%nproc=1
%NoSave
%Mem=1900MB
#P OB98/GEN NMR

erre ene a

0 1
  C     -326.236     449.384      12.513
  O     -326.046     450.742      12.860
  H     -325.871     449.196      11.500
  H     -325.674     448.762      13.214
  H     -327.296     449.125      12.581
  P     -326.709     451.825      11.879
  C     -328.973     452.138      13.101
  O     -328.297     451.609      11.971
  C     -329.917     453.255      12.674
  O     -330.759     452.808      11.588
  C     -330.880     453.727      13.756
  O     -330.250     454.607      14.680
  C     -331.921     454.448      12.912
  O     -331.445     455.767      12.579
  C     -331.987     453.579      11.651
  N     -337.085     453.147      11.199
  C     -336.266     454.221      11.177
  N     -334.924     454.264      11.313
  C     -334.423     453.026      11.473
  C     -335.132     451.840      11.518
  C     -336.526     451.927      11.378
  N     -337.355     450.824      11.419
  N     -334.279     450.770      11.682
  C     -333.074     451.299      11.739
  N     -333.111     452.664      11.623
  O     -326.344     451.279      10.417
  O     -326.240     453.229      12.070
  H     -330.710     455.644      11.948
  H     -326.182     452.038       9.828
  H     -336.756     455.180      11.022
  H     -332.156     450.737      11.855
  H     -332.024     454.192      10.742
  H     -332.879     454.567      13.424
  H     -331.351     452.879      14.266
  H     -329.308     454.090      12.303
  H     -328.238     452.539      13.808
  H     -338.307     450.926      11.120
  H     -336.926     449.914      11.550
  H     -329.532     451.331      13.589
  P     -330.885     454.712      16.151
  C     -329.013     453.147      17.026
  O     -330.412     453.392      16.923
  O     -332.446     454.448      15.892
  O     -330.653     456.008      16.851
  H     -332.974     454.866      16.597
  H     -328.849     452.236      17.564
  H     -328.546     453.957      17.546
  H     -328.592     453.063      16.046

 6  7  8  9  10  11  12  13  14  15  25  28  32  33  34  35 0
 6-311+G(2d,p)
 ****
 36  39  40 0
 6-311+G(2d,p)
 ****
 1  2  3  4  5  16  17  18  19  20  21  22  23  24 0
 3-21G
 ****
 26  27  29  30  31  37  38  41  42  43  44  45  46  47  48 0
 3-21G
 ****


