%nproc=1
%NoSave
%Mem=1900MB
#P OB98/GEN NMR

erre ene a

0 1
  C      -95.699    -145.187      42.870
  O      -95.449    -146.512      42.407
  P      -93.946    -146.938      42.033
  C      -93.585    -148.793      43.778
  O      -93.741    -148.491      42.399
  C      -93.858    -150.272      44.086
  O      -95.286    -150.533      44.147
  C      -93.258    -151.252      43.064
  O      -92.841    -152.413      43.790
  C      -94.449    -151.573      42.184
  O      -94.269    -152.759      41.429
  C      -95.566    -151.616      43.233
  N      -96.891    -151.497      42.645
  C      -97.666    -152.658      42.582
  O      -97.188    -153.739      42.916
  N      -98.958    -152.558      42.108
  C      -99.372    -151.436      41.607
  N     -100.658    -151.371      41.169
  C      -98.513    -150.237      41.495
  C      -97.308    -150.332      42.051
  O      -92.878    -146.027      42.542
  O      -93.969    -146.955      40.427
  H      -95.024    -152.862      40.809
  H      -93.098    -146.664      40.099
  H      -98.873    -149.351      40.993
  H      -96.608    -149.508      42.025
  H      -95.524    -152.550      43.809
  H      -94.619    -150.747      41.480
  H      -92.400    -150.845      42.522
  H      -93.444    -150.489      45.085
  H     -101.228    -152.208      41.231
  H      -94.267    -148.171      44.363
  H     -101.070    -150.518      40.813
  H      -92.573    -148.503      44.096
  P      -91.275    -152.769      43.862
  C      -91.504    -154.175      46.035
  O      -91.113    -154.137      44.681
  O      -90.741    -151.683      44.926
  O      -90.514    -152.646      42.580
  H      -89.797    -151.526      44.764
  H      -91.592    -155.220      46.348
  H      -92.473    -153.691      46.187
  H      -90.743    -153.689      46.658
  H      -96.743    -145.071      43.072
  H      -95.401    -144.485      42.120
  H      -95.140    -145.011      43.765

 3  4  5  6  7  8  9  10  11  12  13  23  27  28  29  30  32 0
 6-311+G(2d,p)
 ****
 34  35 0
 6-311+G(2d,p)
 ****
 1  2  14  15  16  17  18  19  20  21  22  24  25  26 0
 3-21G
 ****
 31  33  36  37  38  39  40  41  42  43  44  45  46 0
 3-21G
 ****


