%nproc=1
%NoSave
%Mem=1900MB
#P OB98/GEN NMR

erre ene a

0 1
  C     -224.487    -165.378    -223.117
  O     -225.725    -165.042    -222.513
  P     -226.408    -163.652    -222.932
  C     -227.611    -163.590    -220.592
  O     -226.806    -162.931    -221.557
  C     -227.363    -162.996    -219.203
  O     -226.145    -163.533    -218.648
  C     -227.184    -161.483    -219.185
  O     -228.423    -160.802    -219.304
  C     -226.476    -161.286    -217.849
  O     -227.428    -161.313    -216.771
  C     -225.568    -162.531    -217.786
  N     -224.182    -162.250    -218.155
  C     -223.284    -162.097    -217.103
  O     -223.611    -162.190    -215.921
  N     -221.991    -161.815    -217.457
  C     -221.532    -161.610    -218.726
  O     -220.373    -161.316    -218.985
  C     -222.534    -161.752    -219.794
  C     -223.791    -162.061    -219.466
  O     -227.793    -164.175    -223.535
  O     -225.572    -162.847    -223.868
  H     -228.061    -165.025    -223.142
  H     -227.822    -162.207    -216.775
  H     -221.318    -161.722    -216.713
  H     -222.208    -161.589    -220.813
  H     -224.543    -162.160    -220.239
  H     -225.576    -162.955    -216.775
  H     -225.942    -160.331    -217.791
  H     -226.517    -161.177    -220.001
  H     -228.195    -163.292    -218.551
  H     -227.359    -164.653    -220.585
  H     -228.664    -163.481    -220.873
  P     -228.352    -159.241    -219.692
  C     -230.652    -158.880    -218.505
  O     -229.308    -158.481    -218.658
  O     -229.166    -159.227    -221.070
  O     -226.959    -158.712    -219.790
  H     -229.964    -159.782    -221.043
  H     -231.021    -158.509    -217.545
  H     -230.750    -159.968    -218.523
  H     -231.256    -158.447    -219.307
  H     -224.154    -166.324    -222.745
  H     -223.761    -164.627    -222.884
  H     -224.612    -165.436    -224.178

 3  4  5  6  7  8  9  10  11  12  13  24  28  29  30  31  32 0
 6-311+G(2d,p)
 ****
 33  34 0
 6-311+G(2d,p)
 ****
 1  2  14  15  16  17  18  19  20  21  22  23  25  26  27 0
 3-21G
 ****
 35  36  37  38  39  40  41  42  43  44  45 0
 3-21G
 ****


