%nproc=1
%NoSave
%Mem=1900MB
#P OB98/GEN NMR

erre ene a

0 1
  C       84.140     -16.917     372.882
  O       83.917     -16.836     371.472
  P       84.937     -17.637     370.527
  C       83.924     -20.028     370.565
  O       84.143     -18.841     369.816
  C       82.637     -20.743     370.137
  O       81.466     -19.965     370.503
  C       82.560     -21.013     368.640
  O       81.853     -22.247     368.458
  C       81.682     -19.876     368.131
  O       81.098     -20.198     366.870
  C       80.691     -19.741     369.302
  N       80.009     -18.446     369.325
  C       78.667     -18.430     368.952
  O       78.120     -19.465     368.550
  N       77.981     -17.239     368.995
  C       78.597     -16.156     369.333
  N       77.865     -15.001     369.357
  C       80.033     -16.115     369.680
  C       80.664     -17.285     369.658
  O       85.898     -18.385     371.573
  O       85.717     -16.759     369.603
  H       80.454     -20.927     367.013
  H       86.830     -18.228     371.335
  H       80.511     -15.181     369.937
  H       81.719     -17.359     369.902
  H       79.926     -20.521     369.252
  H       82.277     -18.965     368.016
  H       83.534     -21.070     368.146
  H       82.577     -21.693     370.689
  H       76.884     -15.070     369.119
  H       83.870     -19.792     371.631
  H       78.245     -14.105     369.603
  H       84.796     -20.686     370.448
  P       82.703     -23.599     368.321
  C       82.583     -24.987     370.481
  O       81.940     -24.657     369.258
  O       83.996     -23.253     369.213
  O       83.088     -24.062     366.952
  H       84.636     -23.984     369.148
  H       81.903     -25.613     371.070
  H       82.814     -24.078     371.049
  H       83.494     -25.547     370.286
  H       83.396     -16.343     373.394
  H       85.111     -16.530     373.112
  H       84.080     -17.939     373.194

 3  4  5  6  7  8  9  10  11  12  13  21  23  27  28  29  30  32 0
 6-311+G(2d,p)
 ****
 34  35 0
 6-311+G(2d,p)
 ****
 1  2  14  15  16  17  18  19  20  22  24  25  26 0
 3-21G
 ****
 31  33  36  37  38  39  40  41  42  43  44  45  46 0
 3-21G
 ****


