%nproc=1
%NoSave
%Mem=1900MB
#P OB98/GEN NMR

erre ene a

0 1
  C       75.567     261.096     192.423
  O       76.066     260.499     191.216
  P       75.136     259.392     190.524
  C       76.278     259.793     188.223
  O       75.890     258.848     189.214
  C       76.430     259.102     186.871
  O       77.494     258.122     186.884
  C       75.184     258.332     186.440
  O       74.169     259.222     185.987
  C       75.769     257.433     185.355
  O       75.924     258.160     184.124
  C       77.149     257.087     185.933
  N       77.724     252.049     185.218
  C       77.734     253.093     184.358
  N       77.567     254.407     184.625
  C       77.396     254.602     185.944
  C       77.370     253.642     186.943
  C       77.544     252.304     186.533
  N       77.522     251.240     187.416
  N       77.168     254.227     188.178
  C       77.052     255.519     187.925
  N       77.194     255.793     186.591
  O       73.915     260.248     189.933
  O       74.660     258.334     191.469
  H       76.287     259.044     184.352
  H       73.109     260.083     190.457
  H       77.884     252.834     183.313
  H       76.868     256.281     188.671
  H       77.927     257.085     185.162
  H       75.142     256.559     185.142
  H       74.808     257.725     187.271
  H       76.676     259.870     186.119
  H       77.218     260.274     188.503
  H       77.571     250.310     187.035
  H       77.300     251.417     188.385
  H       75.522     260.586     188.180
  P       72.657     258.888     186.408
  C       72.200     261.379     186.833
  O       71.864     260.247     186.057
  O       72.740     258.930     188.000
  O       72.097     257.640     185.811
  H       73.242     259.706     188.315
  H       71.619     262.238     186.473
  H       73.268     261.605     186.730
  H       71.955     261.201     187.888
  H       76.274     261.813     192.785
  H       75.420     260.336     193.162
  H       74.636     261.583     192.222

 3  4  5  6  7  8  9  10  11  12  22  25  29  30  31  32 0
 6-311+G(2d,p)
 ****
 33  36  37 0
 6-311+G(2d,p)
 ****
 1  2  13  14  15  16  17  18  19  20  21  23  24  26 0
 3-21G
 ****
 27  28  34  35  38  39  40  41  42  43  44  45  46  47  48 0
 3-21G
 ****


