%nproc=1
%NoSave
%Mem=1900MB
#P OB98/GEN NMR

erre ene a

0 1
  C      -12.190    -135.663     -93.681
  O      -11.011    -135.910     -94.418
  H      -13.000    -135.447     -94.382
  H      -12.056    -134.801     -93.025
  H      -12.462    -136.543     -93.091
  P       -9.647    -136.192     -93.622
  C       -7.916    -134.783     -92.326
  O       -9.131    -134.777     -93.069
  C       -7.534    -133.352     -91.927
  O       -7.083    -132.664     -93.118
  C       -8.720    -132.570     -91.338
  O       -8.423    -131.982     -90.072
  C       -9.127    -131.642     -92.480
  O       -9.772    -130.459     -92.066
  C       -7.815    -131.429     -93.240
  N       -7.999    -131.072     -94.645
  C       -8.126    -129.718     -94.952
  O       -8.084    -128.805     -94.134
  N       -8.307    -129.427     -96.281
  C       -8.387    -130.330     -97.300
  O       -8.547    -130.009     -98.471
  C       -8.274    -131.745     -96.909
  C       -8.090    -132.048     -95.624
  O       -8.620    -136.984     -94.361
  O      -10.124    -136.946     -92.291
  H       -9.743    -129.834     -92.823
  H       -9.911    -137.897     -92.362
  H       -8.385    -128.453     -96.517
  H       -8.345    -132.489     -97.693
  H       -8.003    -133.081     -95.299
  H       -7.228    -130.637     -92.773
  H       -9.831    -132.185     -93.128
  H       -9.554    -133.243     -91.110
  H       -6.689    -133.393     -91.228
  H       -7.137    -135.220     -92.960
  H       -8.035    -135.400     -91.428
  P       -9.441    -131.881     -88.846
  C      -11.497    -130.345     -88.262
  O      -10.300    -130.541     -89.007
  O       -8.866    -132.151     -87.496
  O      -10.523    -133.038     -89.155
  H      -10.828    -133.365     -88.284
  H      -11.920    -129.394     -88.510
  H      -11.275    -130.374     -87.216
  H      -12.196    -131.119     -88.500

 6  7  8  9  10  11  12  13  14  15  16  26  31  32  33  34  35 0
 6-311+G(2d,p)
 ****
 36  37 0
 6-311+G(2d,p)
 ****
 1  2  3  4  5  17  18  19  20  21  22  23  24  25 0
 3-21G
 ****
 27  28  29  30  38  39  40  41  42  43  44  45 0
 3-21G
 ****


