%nproc=1
%NoSave
%Mem=1900MB
#P OB98/GEN NMR

erre ene a

0 1
  C       43.042     -58.735      15.588
  O       43.068     -60.043      16.134
  P       41.681     -60.849      16.206
  C       41.153     -60.013      18.611
  O       40.753     -60.059      17.248
  C       40.087     -59.315      19.450
  O       39.934     -57.940      19.043
  C       38.697     -59.926      19.326
  O       38.537     -61.074      20.142
  C       37.831     -58.786      19.837
  O       37.842     -58.767      21.278
  C       38.558     -57.556      19.281
  N       34.663     -55.016      17.290
  C       35.041     -55.159      18.609
  N       34.233     -54.594      19.531
  N       36.116     -55.795      18.993
  C       36.826     -56.317      17.961
  C       36.553     -56.238      16.614
  C       35.354     -55.541      16.205
  O       34.938     -55.426      15.058
  N       37.508     -56.882      15.873
  C       38.359     -57.348      16.765
  N       37.966     -57.069      18.048
  O       42.069     -62.183      16.997
  O       41.062     -61.140      14.881
  H       38.772     -58.899      21.551
  H       41.381     -62.863      16.865
  H       33.822     -54.520      17.045
  H       39.257     -57.905      16.532
  H       38.570     -56.730      19.999
  H       36.785     -58.875      19.529
  H       33.357     -54.144      19.305
  H       38.445     -60.133      18.279
  H       34.450     -54.737      20.509
  H       40.419     -59.324      20.496
  H       42.096     -59.469      18.691
  H       41.312     -61.034      18.974
  P       37.843     -62.353      19.461
  C       35.693     -62.258      20.915
  O       36.267     -62.122      19.630
  O       38.173     -63.532      20.491
  O       38.323     -62.654      18.081
  H       38.182     -64.392      20.032
  H       34.693     -61.814      20.900
  H       36.291     -61.742      21.671
  H       35.604     -63.316      21.172
  H       44.029     -58.322      15.603
  H       42.389     -58.119      16.170
  H       42.689     -58.777      14.579

 3  4  5  6  7  8  9  10  11  12  23  26  30  31 0
 6-311+G(2d,p)
 ****
 33  35  36  37  38 0
 6-311+G(2d,p)
 ****
 1  2  13  14  15  16  17  18  19  20  21  22  24  25 0
 3-21G
 ****
 27  28  29  32  34  39  40  41  42  43  44  45  46  47  48  49 0
 3-21G
 ****


