%nproc=1
%NoSave
%Mem=1900MB
#P OB98/GEN NMR

erre ene a

0 1
  C     -632.252     271.013    -206.761
  O     -632.468     270.487    -205.451
  P     -632.990     271.455    -204.291
  C     -635.046     270.189    -203.354
  O     -634.579     271.285    -204.130
  C     -635.306     268.980    -204.251
  O     -634.094     268.512    -204.879
  C     -635.828     267.774    -203.478
  O     -637.139     267.863    -202.959
  C     -635.541     266.627    -204.436
  O     -636.568     266.500    -205.431
  C     -634.211     267.088    -205.084
  N     -633.050     266.374    -204.558
  C     -632.827     265.099    -205.077
  O     -633.579     264.566    -205.895
  N     -631.734     264.444    -204.591
  C     -630.870     264.909    -203.636
  O     -629.912     264.264    -203.217
  C     -631.173     266.243    -203.108
  C     -632.228     266.911    -203.582
  O     -632.503     272.862    -204.349
  O     -632.438     270.733    -202.959
  H     -636.634     267.359    -205.888
  H     -632.117     271.428    -202.357
  H     -631.551     263.521    -204.961
  H     -630.515     266.644    -202.345
  H     -632.468     267.905    -203.209
  H     -634.242     266.927    -206.171
  H     -635.485     265.662    -203.916
  H     -635.179     267.620    -202.607
  H     -635.997     269.274    -205.044
  H     -635.965     270.472    -202.828
  H     -634.301     269.962    -202.583
  P     -637.470     268.501    -201.524
  C     -639.551     269.907    -202.166
  O     -638.211     269.905    -201.753
  O     -636.397     268.452    -200.485
  O     -638.683     267.579    -201.040
  H     -638.640     267.492    -200.067
  H     -639.885     270.939    -202.288
  H     -640.186     269.429    -201.407
  H     -639.662     269.387    -203.125
  H     -631.906     270.233    -207.406
  H     -631.518     271.791    -206.717
  H     -633.170     271.410    -207.142

 3  4  5  6  7  8  9  10  11  12  13  23  28  29  30  31  32 0
 6-311+G(2d,p)
 ****
 33  34 0
 6-311+G(2d,p)
 ****
 1  2  14  15  16  17  18  19  20  21  22  24  25  26  27 0
 3-21G
 ****
 35  36  37  38  39  40  41  42  43  44  45 0
 3-21G
 ****


