%nproc=1
%NoSave
%Mem=1900MB
#P OB98/GEN NMR

erre ene a

0 1
  C       82.511    -800.393     951.391
  O       81.148    -799.978     951.227
  P       80.838    -798.396     951.154
  C       80.452    -798.328     948.577
  O       81.217    -797.872     949.687
  C       79.554    -797.201     948.045
  O       80.332    -796.065     947.607
  C       78.724    -797.609     946.842
  O       77.543    -798.306     947.241
  C       78.362    -796.255     946.272
  O       77.268    -795.673     947.010
  C       79.641    -795.446     946.495
  N       80.591    -793.224     941.971
  C       79.592    -793.058     942.871
  N       79.398    -793.702     944.044
  C       80.376    -794.584     944.267
  C       81.467    -794.875     943.443
  C       81.552    -794.143     942.242
  N       82.573    -794.315     941.329
  N       82.247    -795.849     944.003
  C       81.671    -796.143     945.137
  N       80.529    -795.420     945.342
  O       81.984    -797.770     952.080
  O       79.475    -798.039     951.636
  H       77.033    -794.834     946.559
  H       81.637    -796.987     952.542
  H       78.841    -792.302     942.614
  H       82.046    -796.874     945.855
  H       79.436    -794.405     946.771
  H       78.033    -796.310     945.219
  H       79.320    -798.187     946.124
  H       78.899    -796.878     948.860
  H       79.839    -799.182     948.881
  H       82.585    -793.736     940.512
  H       83.305    -794.986     941.545
  H       81.138    -798.690     947.808
  P       77.264    -799.728     946.544
  C       78.057    -801.184     948.554
  O       78.300    -800.754     947.226
  O       77.845    -799.526     945.060
  O       75.825    -800.145     946.536
  H       77.343    -800.080     944.434
  H       78.658    -802.074     948.744
  H       77.007    -801.424     948.704
  H       78.359    -800.399     949.255
  H       82.557    -801.462     951.422
  H       82.898    -799.993     952.305
  H       83.094    -800.034     950.569

 3  4  5  6  7  8  9  10  11  12  22  25  29  30  31  32 0
 6-311+G(2d,p)
 ****
 33  36  37 0
 6-311+G(2d,p)
 ****
 1  2  13  14  15  16  17  18  19  20  21  23  24  26 0
 3-21G
 ****
 27  28  34  35  38  39  40  41  42  43  44  45  46  47  48 0
 3-21G
 ****


