%nproc=1
%NoSave
%Mem=1900MB
#P OB98/GEN NMR

erre ene a

0 1
  C      736.849      67.205    -209.516
  O      736.400      65.900    -209.802
  H      736.293      67.587    -208.654
  H      736.679      67.874    -210.364
  H      737.916      67.190    -209.266
  P      736.877      65.218    -211.179
  C      736.457      65.726    -213.679
  O      736.033      65.952    -212.332
  C      735.711      66.638    -214.654
  O      734.288      66.448    -214.519
  C      735.939      68.120    -214.392
  O      737.247      68.566    -214.706
  C      734.753      68.766    -215.101
  O      734.963      68.995    -216.492
  C      733.649      67.685    -214.915
  N      732.634      68.105    -213.954
  C      731.462      68.608    -214.503
  O      731.274      68.735    -215.719
  N      730.509      69.019    -213.604
  C      730.642      69.012    -212.250
  O      729.768      69.437    -211.498
  C      731.913      68.492    -211.729
  C      732.841      68.064    -212.590
  O      736.798      63.721    -211.229
  O      738.354      65.792    -211.392
  H      735.187      68.127    -216.892
  H      738.853      65.254    -212.052
  H      729.650      69.383    -213.988
  H      732.053      68.475    -210.652
  H      733.791      67.675    -212.230
  H      733.155      67.486    -215.871
  H      734.493      69.730    -214.651
  H      735.804      68.312    -213.326
  H      735.990      66.358    -215.674
  H      736.239      64.678    -213.924
  H      737.543      65.885    -213.752
  P      738.126      69.457    -213.718
  C      737.950      71.801    -212.595
  O      737.348      70.844    -213.464
  O      739.594      69.505    -213.977
  O      737.910      68.686    -212.316
  H      738.738      68.766    -211.803
  H      737.322      72.664    -212.525
  H      738.905      72.086    -212.985
  H      738.075      71.371    -211.623

 6  7  8  9  10  11  12  13  14  15  16  26  31  32  33  34  35 0
 6-311+G(2d,p)
 ****
 36  37 0
 6-311+G(2d,p)
 ****
 1  2  3  4  5  17  18  19  20  21  22  23  24  25 0
 3-21G
 ****
 27  28  29  30  38  39  40  41  42  43  44  45 0
 3-21G
 ****


