%nproc=1
%NoSave
%Mem=1900MB
#P OB98/GEN NMR

erre ene a

0 1
  C      918.919     310.794     -79.815
  O      918.072     310.427     -80.889
  H      919.031     309.928     -79.149
  H      918.489     311.623     -79.241
  H      919.912     311.075     -80.187
  P      917.698     311.550     -81.974
  C      915.974     312.686     -80.421
  O      917.180     312.836     -81.155
  C      915.475     314.048     -79.923
  O      914.982     314.772     -81.079
  C      914.348     313.946     -78.896
  O      914.596     314.660     -77.689
  C      913.101     314.317     -79.699
  O      912.037     314.847     -78.931
  C      913.658     315.270     -80.767
  N      912.840     315.347     -81.975
  C      912.064     316.483     -82.144
  O      912.025     317.443     -81.376
  N      911.286     316.506     -83.287
  C      911.227     315.534     -84.232
  O      910.521     315.624     -85.224
  C      912.063     314.344     -83.984
  C      912.824     314.304     -82.876
  O      916.785     311.093     -83.067
  O      919.107     312.034     -82.557
  H      911.791     314.189     -78.271
  H      919.260     311.622     -83.426
  H      910.720     317.339     -83.410
  H      912.031     313.551     -84.713
  H      913.450     313.447     -82.669
  H      913.755     316.268     -80.358
  H      912.723     313.405     -80.195
  H      914.230     312.885     -78.552
  H      916.337     314.617     -79.522
  H      916.177     312.028     -79.571
  H      915.207     312.222     -81.052
  P      914.940     313.978     -76.287
  C      912.584     313.680     -75.149
  O      913.685     313.096     -75.850
  O      915.521     314.892     -75.249
  O      916.072     312.883     -76.668
  H      916.669     312.822     -75.880
  H      911.850     312.928     -74.948
  H      912.149     314.453     -75.748
  H      912.929     314.096     -74.226

 6  7  8  9  10  11  12  13  14  15  16  26  31  32  33  34  35 0
 6-311+G(2d,p)
 ****
 36  37 0
 6-311+G(2d,p)
 ****
 1  2  3  4  5  17  18  19  20  21  22  23  24  25 0
 3-21G
 ****
 27  28  29  30  38  39  40  41  42  43  44  45 0
 3-21G
 ****


