%nproc=1
%NoSave
%Mem=1900MB
#P OB98/GEN NMR

erre ene a

0 1
  C       14.819    -375.875      16.393
  O       16.109    -376.176      15.877
  P       17.032    -375.027      15.261
  C       18.235    -376.887      13.852
  O       17.701    -375.583      13.921
  C       19.202    -376.963      12.661
  O       18.481    -376.818      11.422
  C       20.259    -375.861      12.721
  O       21.441    -376.336      13.342
  C       20.447    -375.499      11.260
  O       21.339    -376.433      10.625
  C       19.011    -375.666      10.710
  N       18.065    -374.548      10.887
  C       16.696    -374.777      10.772
  O       16.206    -375.881      10.552
  N       15.892    -373.665      10.888
  C       16.320    -372.397      11.152
  O       15.629    -371.389      11.016
  C       17.729    -372.271      11.531
  C       18.528    -373.325      11.362
  O       18.257    -374.954      16.284
  O       16.373    -373.695      15.085
  H       21.467    -376.125       9.710
  H       18.137    -374.222      16.914
  H       14.910    -373.803      10.664
  H       18.083    -371.306      11.885
  H       19.585    -373.246      11.603
  H       19.024    -375.906       9.643
  H       20.906    -374.517      11.154
  H       19.858    -374.986      13.256
  H       19.681    -377.953      12.655
  H       17.430    -377.617      13.735
  H       18.762    -377.128      14.780
  P       22.367    -375.320      14.163
  C       24.261    -377.039      13.967
  O       23.873    -375.697      13.750
  O       22.104    -375.244      15.633
  O       22.098    -373.916      13.440
  H       21.433    -373.402      13.943
  H       25.226    -377.208      13.484
  H       23.527    -377.725      13.541
  H       24.365    -377.224      15.042
  H       14.362    -376.772      16.757
  H       14.213    -375.456      15.617
  H       14.910    -375.171      17.193

 3  4  5  6  7  8  9  10  11  12  13  23  28  29  30  31  32 0
 6-311+G(2d,p)
 ****
 33  34 0
 6-311+G(2d,p)
 ****
 1  2  14  15  16  17  18  19  20  21  22  24  25  26  27 0
 3-21G
 ****
 35  36  37  38  39  40  41  42  43  44  45 0
 3-21G
 ****


