%nproc=1
%NoSave
%Mem=1900MB
#P OB98/GEN NMR

erre ene a

0 1
  C       23.156      48.461     -41.550
  O       24.155      48.956     -42.419
  H       23.546      47.580     -41.034
  H       22.278      48.168     -42.130
  H       22.880      49.212     -40.806
  P       23.924      50.424     -43.027
  C       23.482      49.520     -45.420
  O       22.972      50.241     -44.308
  C       24.554      50.337     -46.133
  O       25.055      49.618     -47.280
  C       24.074      51.689     -46.651
  O       24.101      52.678     -45.632
  C       25.121      51.973     -47.714
  O       26.343      52.416     -47.085
  C       25.329      50.584     -48.334
  N       24.253      51.757     -53.150
  C       25.169      52.322     -52.284
  N       25.896      53.351     -52.768
  N       25.354      51.920     -51.054
  C       24.540      50.897     -50.698
  C       23.590      50.259     -51.463
  C       23.407      50.703     -52.825
  O       22.615      50.229     -53.636
  N       22.959      49.267     -50.758
  C       23.512      49.319     -49.563
  N       24.475      50.294     -49.473
  O       25.354      50.773     -43.661
  O       23.499      51.460     -42.043
  H       26.101      53.117     -46.453
  H       25.824      51.383     -43.061
  H       24.142      52.112     -54.083
  H       23.257      48.673     -48.735
  H       26.363      50.426     -48.664
  H       24.817      52.758     -48.407
  H       25.789      53.726     -53.698
  H       23.085      51.616     -47.120
  H       26.577      53.778     -52.152
  H       25.394      50.466     -45.438
  H       22.662      49.308     -46.113
  H       23.906      48.575     -45.066
  P       23.262      54.027     -45.861
  C       25.452      55.404     -46.036
  O       24.221      55.047     -46.649
  O       23.186      54.647     -44.388
  O       21.904      53.841     -46.444
  H       22.267      54.608     -44.057
  H       25.982      56.084     -46.670
  H       26.042      54.525     -45.883
  H       25.259      55.872     -45.093

 6  7  8  9  10  11  12  13  14  15  26  29  33  34 0
 6-311+G(2d,p)
 ****
 36  38  39  40  41 0
 6-311+G(2d,p)
 ****
 1  2  3  4  5  16  17  18  19  20  21  22  23  24  25 0
 3-21G
 ****
 27  28  30  31  32  35  37  42  43  44  45  46  47 0
 3-21G
 ****
 48  49 0
 3-21G
 ****


