%nproc=1
%NoSave
%Mem=1900MB
#P OB98/GEN NMR

erre ene a

0 1
  C     -193.060     165.058      65.639
  O     -193.856     166.224      65.565
  H     -193.163     164.472      64.720
  H     -192.011     165.351      65.754
  H     -193.354     164.453      66.505
  P     -195.436     165.996      65.377
  C     -196.137     164.993      67.662
  O     -196.101     166.150      66.834
  C     -196.598     165.369      69.070
  O     -195.740     166.442      69.553
  C     -198.059     165.847      69.145
  O     -198.765     165.152      70.183
  C     -197.950     167.315      69.533
  O     -199.013     167.744      70.378
  C     -196.600     167.370      70.238
  N     -197.492     172.253      71.415
  C     -198.042     171.108      71.879
  N     -197.692     169.835      71.597
  C     -196.636     169.809      70.762
  C     -195.958     170.892      70.227
  C     -196.439     172.166      70.569
  N     -195.915     173.334      70.056
  N     -194.925     170.468      69.403
  C     -195.009     169.153      69.412
  N     -196.035     168.705      70.204
  O     -195.544     164.424      65.076
  O     -196.054     166.809      64.292
  H     -198.956     168.713      70.449
  H     -195.934     164.302      64.190
  H     -198.879     171.230      72.563
  H     -194.389     168.477      68.829
  H     -196.667     167.055      71.288
  H     -197.954     167.926      68.624
  H     -198.595     165.723      68.201
  H     -196.442     164.509      69.732
  H     -195.135     164.553      67.720
  H     -196.394     174.194      70.260
  H     -195.205     173.269      69.338
  H     -196.820     164.257      67.221
  P     -200.257     164.659      69.819
  C     -199.858     162.342      68.708
  O     -200.276     163.055      69.873
  O     -200.383     165.005      68.262
  O     -201.319     165.338      70.619
  H     -201.155     165.587      68.109
  H     -199.923     161.290      68.891
  H     -198.846     162.601      68.475
  H     -200.491     162.601      67.885

 6  7  8  9  10  11  12  13  14  15  25  28  32  33  34  35 0
 6-311+G(2d,p)
 ****
 36  39  40 0
 6-311+G(2d,p)
 ****
 1  2  3  4  5  16  17  18  19  20  21  22  23  24 0
 3-21G
 ****
 26  27  29  30  31  37  38  41  42  43  44  45  46  47  48 0
 3-21G
 ****


