%nproc=1
%NoSave
%Mem=1900MB
#P OB98/GEN NMR

erre ene a

0 1
  C     -265.473     732.752     432.916
  O     -265.876     732.538     434.251
  H     -264.730     731.993     432.647
  H     -265.011     733.737     432.820
  H     -266.326     732.671     432.235
  P     -267.078     733.443     434.814
  C     -269.577     733.793     434.192
  O     -268.360     733.126     433.897
  C     -270.701     733.275     433.293
  O     -270.504     733.791     431.951
  C     -270.767     731.751     433.211
  O     -272.139     731.352     433.170
  C     -270.109     731.435     431.870
  O     -270.548     730.193     431.328
  C     -270.492     732.673     431.043
  N     -269.567     732.878     429.933
  C     -270.127     732.934     428.649
  O     -271.341     732.797     428.501
  N     -269.294     733.078     427.570
  C     -268.004     733.083     427.752
  N     -267.236     733.195     426.631
  C     -267.370     732.958     429.073
  C     -268.201     732.869     430.116
  O     -266.669     734.928     434.370
  O     -267.324     733.338     436.282
  H     -270.228     729.469     431.910
  H     -266.983     735.589     435.011
  H     -266.294     732.942     429.166
  H     -267.827     732.770     431.128
  H     -271.511     732.569     430.639
  H     -269.023     731.387     431.999
  H     -270.263     731.246     434.043
  H     -271.651     733.687     433.657
  H     -267.706     733.260     425.739
  H     -269.442     734.867     434.019
  H     -266.223     733.166     426.645
  H     -269.833     733.638     435.251
  P     -272.656     730.432     434.381
  C     -273.011     731.615     436.666
  O     -273.527     731.348     435.372
  O     -271.319     730.131     435.209
  O     -273.323     729.171     433.934
  H     -271.054     729.196     435.085
  H     -273.699     732.233     437.204
  H     -272.072     732.120     436.578
  H     -272.873     730.694     437.192

 6  7  8  9  10  11  12  13  14  15  16  26  30  31  32  33  35 0
 6-311+G(2d,p)
 ****
 37  38 0
 6-311+G(2d,p)
 ****
 1  2  3  4  5  17  18  19  20  21  22  23  24  25 0
 3-21G
 ****
 27  28  29  34  36  39  40  41  42  43  44  45  46 0
 3-21G
 ****


