%nproc=1
%NoSave
%Mem=1900MB
#P OB98/GEN NMR

erre ene a

0 1
  C      203.847    -323.433     239.434
  O      205.130    -323.110     238.880
  P      206.091    -322.201     239.797
  C      206.574    -320.624     237.791
  O      207.119    -321.428     238.830
  C      207.378    -320.755     236.493
  O      208.440    -319.768     236.487
  C      208.033    -322.127     236.279
  O      207.978    -322.442     234.880
  C      209.491    -321.876     236.630
  O      210.361    -322.828     236.027
  C      209.656    -320.446     236.123
  N      214.107    -318.274     235.086
  C      213.137    -318.750     234.221
  N      213.398    -318.653     232.901
  N      212.004    -319.275     234.626
  C      211.863    -319.274     235.975
  C      212.749    -318.824     236.926
  C      214.011    -318.288     236.468
  O      214.937    -317.897     237.180
  N      212.250    -319.002     238.196
  C      211.070    -319.557     238.009
  N      210.794    -319.754     236.683
  O      207.004    -323.288     240.547
  O      205.357    -321.343     240.772
  H      210.180    -322.815     235.066
  H      206.929    -323.170     241.516
  H      214.967    -317.898     234.717
  H      210.389    -319.866     238.794
  H      209.743    -320.421     235.029
  H      209.612    -321.940     237.719
  H      214.214    -318.201     232.523
  H      207.586    -322.940     236.861
  H      212.674    -318.956     232.255
  H      206.707    -320.518     235.654
  H      206.576    -319.578     238.111
  H      205.533    -320.925     237.625
  P      206.593    -323.054     234.339
  C      207.684    -324.861     232.816
  O      206.921    -323.675     232.895
  O      205.722    -321.757     234.007
  O      205.912    -323.972     235.304
  H      204.769    -321.959     234.082
  H      207.809    -325.344     233.786
  H      208.672    -324.615     232.411
  H      207.183    -325.557     232.138
  H      203.300    -324.036     238.740
  H      203.304    -322.531     239.627
  H      203.979    -323.972     240.349

 3  4  5  6  7  8  9  10  11  12  23  26  30  31  33  0
 6-311+G(2d,p)
 ****
 35  36  37  38 0
 6-311+G(2d,p)
 ****
 1  2  13  14  15  16  17  18  19  20  21  22  24  25  27  28  29 0
 3-21G
 ****
 32  34  39  40  41  42  43  44  45  46  47  48  49 0
 3-21G
 ****


