%nproc=1
%NoSave
%Mem=1900MB
#P OB98/GEN NMR

erre ene a

0 1
  C       45.980    -632.585    -897.150
  O       45.656    -631.817    -898.310
  P       44.765    -630.494    -898.120
  C       46.617    -628.914    -899.060
  O       45.756    -629.251    -897.960
  C       46.928    -627.419    -899.060
  O       45.802    -626.638    -899.540
  C       47.275    -626.859    -897.680
  O       48.623    -627.075    -897.330
  C       47.021    -625.371    -897.890
  O       48.156    -624.782    -898.560
  C       45.799    -625.381    -898.810
  N       42.872    -622.160    -896.210
  C       44.105    -621.959    -896.820
  N       44.623    -620.721    -896.710
  N       44.761    -622.888    -897.450
  C       44.114    -624.074    -897.490
  C       42.898    -624.406    -896.930
  C       42.195    -623.360    -896.210
  O       41.103    -623.488    -895.620
  N       42.571    -625.706    -897.170
  C       43.567    -626.175    -897.880
  N       44.541    -625.236    -898.090
  O       44.183    -630.674    -896.630
  O       43.682    -630.341    -899.130
  H       48.202    -625.197    -899.440
  H       43.332    -630.205    -896.560
  H       42.423    -621.424    -895.710
  H       43.631    -627.194    -898.280
  H       45.839    -624.575    -899.570
  H       46.892    -624.837    -896.940
  H       44.152    -619.928    -896.280
  H       46.560    -627.256    -896.910
  H       45.508    -620.548    -897.180
  H       47.788    -627.261    -899.730
  H       46.149    -629.198    -900.000
  H       47.522    -629.510    -898.990
  P       48.984    -628.379    -896.470
  C       50.765    -629.037    -898.250
  O       49.637    -629.435    -897.490
  O       47.543    -629.005    -896.140
  O       49.772    -628.105    -895.220
  H       47.560    -629.456    -895.260
  H       51.162    -629.922    -898.760
  H       51.549    -628.618    -897.590
  H       50.464    -628.287    -899.000
  H       46.573    -633.429    -897.435
  H       45.079    -632.924    -896.683
  H       46.531    -631.978    -896.463

 3  4  5  6  7  8  9  10  11  12  23  26  30  31 0
 6-311+G(2d,p)
 ****
 33  35  36  37  38 0
 6-311+G(2d,p)
 ****
 1  2  13  14  15  16  17  18  19  20  21  22  24  25 0
 3-21G
 ****
 27  28  29  32  34  39  40  41  42  43  44  45  46  47  48  49 0
 3-21G
 ****


