%nproc=1
%NoSave
%Mem=1900MB
#P OB98/GEN NMR

erre ene a

0 1
  C      208.511    -703.614    -276.909
  O      209.754    -704.004    -276.309
  P      210.309    -705.478    -276.608
  C      212.680    -706.465    -277.038
  O      211.898    -705.469    -276.389
  C      214.136    -706.402    -276.550
  O      214.832    -705.244    -277.084
  C      214.258    -706.295    -275.028
  O      214.159    -707.574    -274.408
  C      215.678    -705.763    -274.878
  O      216.626    -706.842    -275.033
  C      215.780    -704.792    -276.074
  N      217.433    -700.745    -273.524
  C      218.012    -701.988    -273.695
  N      219.215    -702.182    -273.099
  N      217.465    -702.956    -274.373
  C      216.268    -702.621    -274.931
  C      215.595    -701.422    -274.832
  C      216.202    -700.360    -274.059
  O      215.737    -699.249    -273.861
  N      214.410    -701.460    -275.522
  C      214.384    -702.668    -276.052
  N      215.478    -703.420    -275.712
  O      210.165    -705.599    -278.201
  O      209.566    -706.567    -275.900
  H      217.501    -706.474    -274.801
  H      210.052    -706.537    -278.453
  H      217.894    -700.042    -272.979
  H      213.583    -703.051    -276.685
  H      216.767    -704.800    -276.539
  H      215.851    -705.314    -273.901
  H      219.715    -701.463    -272.601
  H      213.536    -705.581    -274.617
  H      219.664    -703.077    -273.244
  H      214.656    -707.305    -276.882
  H      212.654    -706.317    -278.123
  H      212.237    -707.442    -276.857
  P      212.834    -707.895    -273.555
  C      211.287    -709.963    -273.330
  O      212.523    -709.447    -273.777
  O      211.685    -707.140    -274.391
  O      212.875    -707.428    -272.140
  H      210.985    -706.827    -273.799
  H      211.180    -710.992    -273.711
  H      210.454    -709.370    -273.704
  H      211.267    -709.997    -272.236
  H      208.274    -702.612    -276.619
  H      207.735    -704.273    -276.582
  H      208.597    -703.666    -277.974

 3  4  5  6  7  8  9  10  11  12  23  26  30  31 0
 6-311+G(2d,p)
 ****
 33  35  36  37  38 0
 6-311+G(2d,p)
 ****
 1  2  13  14  15  16  17  18  19  20  21  22  24  25 0
 3-21G
 ****
 27  28  29  32  34  39  40  41  42  43  44  45  46  47  48  49 0
 3-21G
 ****


