%nproc=1
%NoSave
%Mem=1900MB
#P OB98/GEN NMR

erre ene a

0 1
  C      230.090     148.119     -31.361
  O      230.878     146.952     -31.133
  P      230.283     145.506     -30.808
  C      230.459     144.093     -33.010
  O      231.016     144.441     -31.751
  C      230.710     142.624     -33.395
  O      229.999     142.318     -34.625
  C      232.194     142.389     -33.683
  O      233.093     142.142     -32.618
  C      232.211     141.327     -34.771
  O      232.346     140.004     -34.244
  C      230.848     141.491     -35.448
  N      231.053     140.610     -40.484
  C      231.024     139.708     -39.443
  N      231.110     138.402     -39.772
  N      230.938     140.054     -38.186
  C      230.947     141.392     -37.990
  C      230.994     142.387     -38.941
  C      231.030     141.991     -40.335
  O      231.046     142.751     -41.296
  N      231.010     143.633     -38.366
  C      231.000     143.394     -37.070
  N      230.953     142.044     -36.789
  O      228.796     145.423     -30.722
  O      230.874     145.183     -29.341
  H      233.052     140.018     -33.575
  H      230.200     144.641     -28.881
  H      231.097     140.288     -41.437
  H      231.015     144.150     -36.297
  H      230.336     140.528     -35.551
  H      233.065     141.481     -35.446
  H      231.297     138.073     -40.709
  H      232.573     143.301     -34.162
  H      231.309     137.750     -39.009
  H      230.302     141.948     -32.640
  H      230.902     144.764     -33.750
  H      229.386     144.296     -33.013
  P      234.269     143.110     -32.127
  C      233.192     144.334     -30.152
  O      234.107     143.327     -30.552
  O      233.866     144.541     -32.722
  O      235.641     142.716     -32.574
  H      234.632     145.145     -32.708
  H      233.389     144.601     -29.110
  H      232.168     143.955     -30.233
  H      233.296     145.231     -30.776
  H      230.733     148.951     -31.556
  H      229.496     148.323     -30.495
  H      229.450     147.958     -32.203

 3  4  5  6  7  8  9  10  11  12  23  26  30  31 0
 6-311+G(2d,p)
 ****
 33  35  36  37  38 0
 6-311+G(2d,p)
 ****
 1  2  13  14  15  16  17  18  19  20  21  22  24  25 0
 3-21G
 ****
 27  28  29  32  34  39  40  41  42  43  44  45  46  47  48  49 0
 3-21G
 ****


