%nproc=1
%NoSave
%Mem=1900MB
#P OB98/GEN NMR

erre ene a

0 1
  C       79.778     288.989     -77.769
  O       80.412     290.063     -77.054
  P       79.899     290.429     -75.574
  C       80.705     292.911     -75.738
  O       80.743     291.680     -75.032
  C       81.597     293.944     -75.043
  O       81.327     293.974     -73.623
  C       83.088     293.665     -75.159
  O       83.596     294.010     -76.436
  C       83.644     294.529     -74.031
  O       83.797     295.893     -74.456
  C       82.536     294.410     -72.965
  N       82.903     293.515     -71.871
  C       83.996     293.897     -71.099
  O       84.673     294.893     -71.340
  N       84.307     293.065     -70.058
  C       83.688     291.885     -69.759
  O       84.028     291.175     -68.819
  C       82.593     291.496     -70.658
  C       82.260     292.312     -71.659
  O       80.505     289.221     -74.705
  O       78.419     290.511     -75.402
  H       82.934     296.168     -74.825
  H       79.940     289.067     -73.925
  H       85.078     293.339     -69.468
  H       82.091     290.554     -70.468
  H       81.451     292.040     -72.331
  H       82.311     295.400     -72.546
  H       84.627     294.189     -73.690
  H       83.289     292.611     -74.932
  H       81.358     294.935     -75.456
  H       79.676     293.284     -75.760
  H       81.038     292.743     -76.766
  P       84.932     293.253     -76.908
  C       86.372     294.842     -78.402
  O       85.315     293.913     -78.317
  O       84.348     291.806     -77.271
  O       86.004     293.250     -75.868
  H       83.444     291.855     -77.627
  H       87.168     294.614     -77.686
  H       85.990     295.847     -78.208
  H       86.790     294.810     -79.412
  H       80.237     288.880     -78.729
  H       78.738     289.208     -77.894
  H       79.887     288.079     -77.216

 3  4  5  6  7  8  9  10  11  12  13  23  28  29  30  31  32 0
 6-311+G(2d,p)
 ****
 33  34 0
 6-311+G(2d,p)
 ****
 1  2  14  15  16  17  18  19  20  21  22  24  25  26 0
 3-21G
 ****
 27  35  36  37  38  39  40  41  42  43  44  45 0
 3-21G
 ****


