%nproc=1
%NoSave
%Mem=1900MB
#P OB98/GEN NMR

erre ene a

0 1
  C     -893.150     643.795     484.269
  O     -894.190     643.350     483.382
  P     -895.520     644.253     483.209
  C     -895.140     645.016     480.727
  O     -895.920     644.268     481.661
  C     -895.460     644.594     479.302
  O     -895.010     643.242     479.054
  C     -896.950     644.591     478.953
  O     -897.450     645.909     478.733
  C     -896.960     643.721     477.699
  O     -896.640     644.479     476.536
  C     -895.860     642.685     478.016
  N     -896.410     641.381     478.407
  C     -895.520     640.334     478.436
  O     -894.350     640.413     478.087
  N     -896.040     639.116     478.839
  C     -897.350     638.874     479.144
  O     -897.760     637.771     479.478
  C     -898.270     640.020     479.023
  C     -897.760     641.202     478.648
  O     -894.950     645.731     483.411
  O     -896.630     643.961     484.166
  H     -896.530     643.866     475.795
  H     -895.650     646.308     483.763
  H     -895.410     638.340     478.880
  H     -899.320     639.858     479.229
  H     -898.420     642.074     478.566
  H     -895.200     642.551     477.146
  H     -897.960     643.264     477.518
  H     -897.510     644.087     479.750
  H     -894.910     645.260     478.614
  H     -894.090     644.853     480.928
  H     -895.360     646.091     480.876
  P     -898.850     646.262     479.414
  C     -897.920     648.555     480.281
  O     -898.880     647.869     479.506
  O     -898.600     645.778     480.934
  O     -900.000     645.617     478.736
  H     -897.680     645.889     481.188
  H     -896.950     648.044     480.253
  H     -898.260     648.644     481.307
  H     -897.780     649.557     479.844
  H     -892.349     643.085     484.264
  H     -893.541     643.885     485.261
  H     -892.785     644.746     483.942

 3  4  5  6  7  8  9  10  11  12  13  23  28  29  30  31  32 0
 6-311+G(2d,p)
 ****
 33  34 0
 6-311+G(2d,p)
 ****
 1  2  14  15  16  17  18  19  20  21  22  24  25  26 0
 3-21G
 ****
 27  35  36  37  38  39  40  41  42  43  44  45 0
 3-21G
 ****


