%nproc=1
%NoSave
%Mem=1900MB
#P OB98/GEN NMR

erre ene a

0 1
  C     -451.631      13.734     -97.063
  O     -451.978      14.943     -96.418
  H     -451.875      12.900     -96.400
  H     -450.558      13.715     -97.275
  H     -452.195      13.625     -97.993
  P     -451.715      16.297     -97.239
  C     -452.991      17.973     -95.715
  O     -451.731      17.489     -96.165
  C     -452.911      18.301     -94.225
  O     -453.126      17.099     -93.448
  C     -451.556      18.832     -93.784
  O     -451.377      20.201     -94.106
  C     -451.611      18.566     -92.286
  O     -452.312      19.609     -91.595
  C     -452.397      17.254     -92.209
  N     -450.683      13.952     -88.716
  C     -451.609      14.931     -88.651
  N     -452.020      15.762     -89.633
  C     -451.386      15.481     -90.785
  C     -450.421      14.512     -91.004
  C     -450.068      13.719     -89.901
  N     -449.106      12.736     -89.954
  N     -449.976      14.556     -92.309
  C     -450.664      15.526     -92.873
  N     -451.531      16.111     -91.992
  O     -453.079      16.498     -98.052
  O     -450.527      16.270     -98.141
  H     -451.806      20.429     -91.753
  H     -452.959      16.189     -98.969
  H     -452.074      15.076     -87.682
  H     -450.566      15.846     -93.906
  H     -453.135      17.260     -91.398
  H     -450.607      18.504     -91.864
  H     -450.752      18.226     -94.218
  H     -453.711      19.013     -93.981
  H     -453.755      17.205     -95.875
  H     -453.255      18.866     -96.293
  H     -448.855      12.253     -89.109
  H     -448.563      12.632     -90.804
  P     -450.062      20.608     -94.923
  C     -450.536      23.135     -95.372
  O     -449.792      22.163     -94.648
  O     -450.532      20.570     -96.454
  O     -448.885      19.724     -94.686
  H     -449.800      20.255     -97.018
  H     -450.233      24.115     -95.068
  H     -451.579      23.007     -95.173
  H     -450.355      23.015     -96.420

 6  7  8  9  10  11  12  13  14  15  25  28  32  33  34  35 0
 6-311+G(2d,p)
 ****
 36  37  40 0
 6-311+G(2d,p)
 ****
 1  2  3  4  5  16  17  18  19  20  21  22  23  24 0
 3-21G
 ****
 26  27  29  30  31  38  39 41  42  43  44  45  46  47  48 0
 3-21G
 ****


