%nproc=1
%NoSave
%Mem=1900MB
#P OB98/GEN NMR

erre ene a

0 1
  C      -21.397    -106.410    -190.916
  O      -21.600    -105.516    -189.834
  P      -20.548    -104.348    -189.498
  C      -19.354    -105.874    -187.784
  O      -19.235    -105.101    -188.967
  C      -18.078    -105.763    -186.947
  O      -17.031    -106.535    -187.591
  C      -17.557    -104.330    -186.775
  O      -16.982    -104.239    -185.468
  C      -16.482    -104.232    -187.841
  O      -15.536    -103.206    -187.571
  C      -15.911    -105.653    -187.807
  N      -15.198    -106.000    -189.031
  C      -13.836    -106.291    -188.930
  O      -13.256    -106.232    -187.847
  N      -13.154    -106.645    -190.068
  C      -13.757    -106.628    -191.217
  N      -13.053    -107.045    -192.303
  C      -15.164    -106.220    -191.382
  C      -15.821    -105.946    -190.258
  O      -21.063    -103.282    -188.596
  O      -20.071    -103.824    -190.929
  H      -15.023    -103.463    -186.780
  H      -20.677    -103.139    -191.310
  H      -15.614    -106.194    -192.364
  H      -16.864    -105.663    -190.280
  H      -15.246    -105.774    -186.945
  H      -16.945    -104.015    -188.809
  H      -18.345    -103.578    -186.875
  H      -18.267    -106.220    -185.968
  H      -12.152    -107.477    -192.125
  H      -19.498    -106.920    -188.068
  H      -13.528    -107.364    -193.141
  H      -20.229    -105.547    -187.214
  P      -17.391    -102.995    -184.540
  C      -15.041    -101.967    -184.149
  O      -16.308    -101.835    -184.757
  O      -17.005    -103.541    -183.077
  O      -18.829    -102.592    -184.564
  H      -17.551    -103.081    -182.413
  H      -14.436    -101.093    -184.409
  H      -14.531    -102.863    -184.512
  H      -15.141    -102.010    -183.061
  H      -22.210    -107.104    -190.962
  H      -20.481    -106.943    -190.771
  H      -21.347    -105.857    -191.831

 3  4  5  6  7  8  9  10  11  12  13  23  27  28  29  30  32 0
 6-311+G(2d,p)
 ****
 34  35 0
 6-311+G(2d,p)
 ****
 1  2  14  15  16  17  18  19  20  21  22  24  25  26 0
 3-21G
 ****
 31  33  36  37  38  39  40  41  42  43  44  45  46 0
 3-21G
 ****


