%nproc=1
%NoSave
%Mem=1900MB
#P OB98/GEN NMR

erre ene a

0 1
  C     -121.656    -374.694      17.458
  O     -120.724    -373.707      17.054
  P     -120.869    -373.115      15.568
  C     -122.468    -371.288      16.494
  O     -122.261    -372.317      15.533
  C     -123.297    -370.142      15.913
  O     -122.600    -369.590      14.771
  C     -124.699    -370.552      15.460
  O     -125.588    -369.476      15.761
  C     -124.562    -370.672      13.954
  O     -125.815    -370.501      13.295
  C     -123.518    -369.583      13.660
  N     -122.830    -369.807      12.394
  C     -122.628    -368.690      11.578
  O     -123.093    -367.598      11.903
  N     -121.952    -368.848      10.395
  C     -121.604    -370.036      10.008
  N     -120.935    -370.140       8.829
  C     -121.908    -371.256      10.781
  C     -122.497    -371.068      11.960
  O     -121.168    -374.417      14.692
  O     -119.675    -372.363      15.078
  H     -126.218    -369.664      13.621
  H     -120.798    -374.325      13.793
  H     -121.629    -372.226      10.396
  H     -122.737    -371.902      12.605
  H     -123.993    -368.593      13.628
  H     -124.167    -371.661      13.694
  H     -125.051    -371.468      15.943
  H     -123.360    -369.349      16.669
  H     -120.750    -369.291       8.312
  H     -121.497    -370.887      16.800
  H     -120.626    -371.025       8.449
  H     -122.957    -371.711      17.377
  P     -127.066    -369.848      16.257
  C     -126.724    -368.940      18.634
  O     -126.923    -370.089      17.836
  O     -127.215    -371.351      15.716
  O     -128.203    -368.995      15.802
  H     -128.114    -371.678      15.902
  H     -126.781    -369.230      19.686
  H     -127.495    -368.193      18.430
  H     -125.732    -368.519      18.439
  H     -121.443    -374.996      18.462
  H     -121.583    -375.541      16.808
  H     -122.646    -374.291      17.409

 3  4  5  6  7  8  9  10  11  12  13  21  23  27  28  29  30  32 0
 6-311+G(2d,p)
 ****
 34  35 0
 6-311+G(2d,p)
 ****
 1  2  14  15  16  17  18  19  20  22  24  25  26 0
 3-21G
 ****
 31  33  36  37  38  39  40  41  42  43  44  45  46 0
 3-21G
 ****


