%nproc=1
%NoSave
%Mem=1900MB
#P OB98/GEN NMR

erre ene a

0 1
  C      669.641    -166.889    -305.280
  O      670.884    -167.405    -304.861
  H      669.782    -166.346    -306.223
  H      669.229    -166.199    -304.534
  H      668.931    -167.710    -305.450
  P      670.992    -168.023    -303.382
  C      670.898    -167.017    -300.997
  O      671.053    -166.757    -302.395
  C      671.481    -165.888    -300.150
  O      672.927    -165.904    -300.221
  C      671.079    -164.500    -300.635
  O      669.711    -164.194    -300.425
  C      672.142    -163.608    -300.003
  O      671.845    -163.211    -298.667
  C      673.380    -164.550    -300.003
  N      674.374    -164.141    -300.992
  C      675.090    -162.993    -300.678
  O      674.902    -162.324    -299.661
  N      676.018    -162.600    -301.615
  C      676.246    -163.210    -302.808
  O      677.061    -162.776    -303.621
  C      675.442    -164.392    -303.091
  C      674.558    -164.814    -302.179
  O      672.095    -169.018    -303.162
  O      669.526    -168.617    -303.114
  H      671.078    -162.602    -298.714
  H      669.537    -169.251    -302.355
  H      676.554    -161.771    -301.404
  H      675.596    -164.913    -304.047
  H      673.943    -165.696    -302.373
  H      673.854    -164.540    -299.017
  H      672.290    -162.698    -300.585
  H      671.230    -164.452    -301.715
  H      671.199    -166.056    -299.107
  H      671.440    -167.955    -300.774
  H      669.831    -167.173    -300.766
  P      668.827    -163.379    -301.472
  C      668.732    -160.934    -302.382
  O      669.245    -161.829    -301.392
  O      667.374    -163.721    -301.539
  O      669.493    -163.837    -302.877
  H      668.779    -163.873    -303.539
  H      669.098    -159.946    -302.194
  H      667.663    -160.932    -302.341
  H      669.051    -161.254    -303.352

 6  7  8  9  10  11  12  13  14  15  16  26  31  32  33  34  35 0
 6-311+G(2d,p)
 ****
 36  37 0
 6-311+G(2d,p)
 ****
 1  2  3  4  5  17  18  19  20  21  22  23  24  25 0
 3-21G
 ****
 27  28  29  30  38  39  40  41  42  43  44  45 0
 3-21G
 ****


