%nproc=1
%NoSave
%Mem=1900MB
#P OB98/GEN NMR

erre ene a

0 1
  C     -139.097    -138.168    -144.634
  O     -139.585    -137.015    -145.288
  P     -140.334    -137.117    -146.699
  C     -142.263    -138.381    -145.578
  O     -141.323    -138.377    -146.644
  C     -143.630    -137.879    -146.037
  O     -143.999    -138.551    -147.275
  C     -144.760    -138.115    -145.023
  O     -145.622    -136.971    -145.078
  C     -145.464    -139.341    -145.571
  O     -146.801    -139.452    -145.102
  C     -145.314    -139.106    -147.078
  N     -145.495    -140.327    -147.850
  C     -146.687    -140.452    -148.566
  O     -147.584    -139.619    -148.425
  N     -146.837    -141.525    -149.411
  C     -145.958    -142.479    -149.391
  N     -146.107    -143.490    -150.291
  C     -144.812    -142.496    -148.459
  C     -144.618    -141.381    -147.757
  O     -139.439    -137.081    -147.894
  O     -141.340    -135.869    -146.702
  H     -141.199    -135.346    -147.516
  H     -147.279    -138.621    -145.312
  H     -144.178    -143.367    -148.391
  H     -143.789    -141.285    -147.067
  H     -146.037    -138.360    -147.424
  H     -144.918    -140.243    -145.266
  H     -144.390    -138.239    -144.001
  H     -143.544    -136.811    -146.264
  H     -146.881    -143.424    -150.940
  H     -141.887    -137.720    -144.793
  H     -145.329    -144.088    -150.566
  H     -142.343    -139.388    -145.157
  P     -146.396    -136.536    -143.737
  C     -144.777    -134.552    -143.320
  O     -145.363    -135.730    -142.812
  O     -146.512    -137.941    -142.963
  O     -147.754    -135.943    -143.913
  H     -147.274    -137.907    -142.358
  H     -144.055    -134.176    -142.589
  H     -145.539    -133.785    -143.480
  H     -144.250    -134.753    -144.260
  H     -138.633    -137.886    -143.712
  H     -138.379    -138.656    -145.260
  H     -139.909    -138.836    -144.435

 3  4  5  6  7  8  9  10  11  12  13  24  27  28  29  30  32 0
 6-311+G(2d,p)
 ****
 34  35 0
 6-311+G(2d,p)
 ****
 1  2  14  15  16  17  18  19  20  21  22  23  25  26 0
 3-21G
 ****
 31  33  36  37  38  39  40  41  42  43  44  45  46 0
 3-21G
 ****


