%nproc=1
%NoSave
%Mem=1900MB
#P OB98/GEN NMR

erre ene a

0 1
  C       54.113     -61.700    -102.082
  O       53.229     -60.598    -101.855
  P       51.795     -60.641    -102.570
  C       49.464     -59.725    -101.859
  O       50.869     -59.506    -101.924
  C       48.777     -58.535    -101.185
  O       49.214     -58.384     -99.822
  C       49.088     -57.208    -101.854
  O       48.326     -57.053    -103.035
  C       48.735     -56.210    -100.758
  O       47.359     -55.802    -100.833
  C       49.001     -57.008     -99.461
  N       50.122     -56.482     -98.699
  C       50.023     -55.142     -98.311
  O       49.040     -54.473     -98.635
  N       51.050     -54.590     -97.590
  C       52.094     -55.306     -97.305
  N       53.083     -54.703     -96.593
  C       52.249     -56.714     -97.719
  C       51.236     -57.234     -98.408
  O       51.152     -62.000    -102.020
  O       51.863     -60.630    -104.063
  H       46.835     -56.618    -100.699
  H       50.579     -62.401    -102.697
  H       53.141     -57.267     -97.465
  H       51.264     -58.262     -98.755
  H       48.116     -56.988     -98.814
  H       49.338     -55.300    -100.837
  H       50.160     -57.145    -102.081
  H       47.692     -58.713    -101.191
  H       52.944     -53.735     -96.327
  H       49.252     -60.641    -101.304
  H       53.940     -55.162     -96.323
  H       49.084     -59.876    -102.875
  P       49.113     -56.963    -104.425
  C       48.886     -58.144    -106.693
  O       48.296     -57.911    -105.429
  O       50.418     -57.846    -104.129
  O       49.461     -55.604    -104.929
  H       51.036     -57.792    -104.880
  H       48.346     -58.955    -107.188
  H       49.933     -58.435    -106.583
  H       48.809     -57.244    -107.310
  H       55.026     -61.540    -101.548
  H       54.321     -61.781    -103.129
  H       53.653     -62.603    -101.739

 3  4  5  6  7  8  9  10  11  12  13  21  23  27  28  29  30  32 0
 6-311+G(2d,p)
 ****
 34  35 0
 6-311+G(2d,p)
 ****
 1  2  14  15  16  17  18  19  20  22  24  25  26 0
 3-21G
 ****
 31  33  36  37  38  39  40  41  42  43  44  45  46 0
 3-21G
 ****


