%nproc=1
%NoSave
%Mem=1900MB
#P OB98/GEN NMR

erre ene a

0 1
  C       32.172    -204.583      18.515
  O       31.200    -203.682      18.028
  H       31.866    -204.930      19.505
  H       33.137    -204.078      18.603
  H       32.264    -205.449      17.852
  P       31.321    -203.226      16.497
  C       30.100    -205.385      15.719
  O       31.255    -204.567      15.615
  C       29.372    -205.436      14.377
  O       30.199    -206.172      13.430
  C       28.007    -206.135      14.433
  O       27.120    -205.467      13.529
  C       28.309    -207.523      13.899
  O       27.177    -208.194      13.364
  C       29.374    -207.200      12.845
  N       30.172    -208.368      12.477
  C       29.717    -209.144      11.416
  O       28.744    -208.873      10.715
  N       30.436    -210.285      11.170
  C       31.517    -210.725      11.874
  O       32.106    -211.767      11.616
  C       31.945    -209.867      12.989
  C       31.261    -208.748      13.236
  O       32.851    -202.777      16.375
  O       30.374    -202.154      16.069
  H       32.947    -201.830      16.589
  H       27.500    -209.000      12.912
  H       30.119    -210.859      10.405
  H       32.792    -210.189      13.577
  H       31.536    -208.103      14.064
  H       28.908    -206.775      11.949
  H       28.727    -208.147      14.697
  H       27.561    -206.167      15.433
  H       29.273    -204.416      13.990
  H       29.426    -204.967      16.474
  H       30.398    -206.392      16.031
  P       25.778    -204.836      14.145
  C       26.661    -202.369      14.119
  O       26.237    -203.489      14.883
  O       25.473    -205.858      15.334
  O       24.689    -204.689      13.137
  H       26.279    -206.201      15.756
  H       26.927    -201.568      14.777
  H       25.865    -202.053      13.477
  H       27.510    -202.642      13.527

 6  7  8  9  10  11  12  13  14  15  16  27  31  32  33  34  35 0
 6-311+G(2d,p)
 ****
 36  37 0
 6-311+G(2d,p)
 ****
 1  2  3  4  5  17  18  19  20  21  22  23  24  25 0
 3-21G
 ****
 26  28  29  30  38  39  40  41  42  43  44  45 0
 3-21G
 ****


