%nproc=1
%NoSave
%Mem=1900MB
#P OB98/GEN NMR

erre ene a

0 1
  C       43.266     306.343      53.397
  O       44.290     307.038      52.719
  H       43.294     306.622      54.454
  H       43.414     305.261      53.320
  H       42.286     306.616      52.992
  P       44.533     306.711      51.166
  C       46.774     305.539      51.733
  O       46.131     306.596      51.034
  C       48.208     305.935      52.087
  O       49.018     306.065      50.899
  C       48.346     307.277      52.795
  O       47.933     307.243      54.154
  C       49.838     307.504      52.646
  O       50.549     306.673      53.586
  C       50.073     307.023      51.194
  N       50.057     308.116      50.222
  C       51.270     308.785      50.011
  O       52.283     308.457      50.629
  N       51.296     309.844      49.135
  C       50.209     310.214      48.535
  N       50.282     311.298      47.711
  C       48.918     309.523      48.711
  C       48.911     308.497      49.562
  O       43.873     307.628      50.185
  O       44.087     305.182      51.007
  H       50.285     306.964      54.477
  H       44.208     304.933      50.058
  H       48.037     309.875      48.190
  H       47.993     307.953      49.761
  H       51.027     306.489      51.110
  H       50.144     308.537      52.838
  H       47.814     308.064      52.249
  H       48.637     305.118      52.684
  H       51.174     311.767      47.646
  H       46.760     304.650      51.094
  H       49.446     311.807      47.432
  H       46.239     305.320      52.662
  P       46.613     308.071      54.559
  C       47.958     309.504      56.273
  O       46.866     308.630      56.043
  O       45.522     306.919      54.766
  O       46.171     309.111      53.577
  H       45.005     306.771      53.950
  H       47.982     309.780      57.307
  H       47.845     310.382      55.672
  H       48.871     309.010      56.014

 6  7  8  9  10  11  12  13  14  15  16  26  30  31  32  33  35 0
 6-311+G(2d,p)
 ****
 37  38 0
 6-311+G(2d,p)
 ****
 1  2  3  4  5  17  18  19  20  21  22  23  24  25 0
 3-21G
 ****
 27  28  29  34  36  39  40  41  42  43  44  45  46 0
 3-21G
 ****


