%nproc=1
%NoSave
%Mem=1900MB
#P OB98/GEN NMR

erre ene a

0 1
  C     -105.962     -72.731     375.823
  O     -106.803     -72.431     374.699
  P     -108.387     -72.220     374.861
  C     -110.485     -73.479     375.644
  O     -109.074     -73.543     375.468
  C     -111.013     -74.497     376.665
  O     -110.898     -75.854     376.159
  C     -110.306     -74.477     378.029
  O     -111.289     -74.855     378.996
  C     -109.268     -75.576     377.868
  O     -108.758     -76.057     379.098
  C     -110.074     -76.602     377.073
  N     -108.225     -81.385     377.012
  C     -109.204     -80.808     377.751
  N     -109.664     -79.545     377.682
  C     -109.042     -78.853     376.707
  C     -108.041     -79.311     375.867
  C     -107.623     -80.639     376.053
  N     -106.600     -81.227     375.334
  N     -107.628     -78.312     375.005
  C     -108.360     -77.264     375.335
  N     -109.236     -77.546     376.354
  O     -109.061     -71.702     373.631
  O     -108.523     -71.155     376.048
  H     -109.474     -76.526     379.562
  H     -109.171     -70.471     375.791
  H     -109.666     -81.444     378.500
  H     -108.287     -76.284     374.886
  H     -110.740     -77.176     377.731
  H     -108.420     -75.187     377.282
  H     -109.864     -73.506     378.275
  H     -112.088     -74.303     376.793
  H     -110.965     -73.659     374.674
  H     -106.311     -82.150     375.602
  H     -106.052     -80.650     374.710
  H     -110.756     -72.464     375.964
  P     -111.686     -73.896     380.211
  C     -111.561     -74.037     382.767
  O     -111.109     -74.580     381.541
  O     -113.137     -73.530     380.280
  O     -110.762     -72.602     380.030
  H     -111.137     -71.858     380.534
  H     -111.056     -73.089     382.963
  H     -111.340     -74.739     383.573
  H     -112.647     -73.870     382.743
  H     -104.949     -72.831     375.494
  H     -106.282     -73.647     376.274
  H     -106.028     -71.939     376.539

 3  4  5  6  7  8  9  10  11  12  22  25  29  30  31  32 0
 6-311+G(2d,p)
 ****
 33  36  37 0
 6-311+G(2d,p)
 ****
 1  2  13  14  15  16  17  18  19  20  21  23  24  26 0
 3-21G
 ****
 27  28  34  35  38  39  40  41  42  43  44  45  46  47  48 0
 3-21G
 ****


