%nproc=1
%NoSave
%Mem=1900MB
#P OB98/GEN NMR

erre ene a

0 1
  C        2.262     590.805     516.891
  O        1.283     590.401     517.825
  H        1.767     591.313     516.056
  H        2.796     589.929     516.510
  H        2.971     591.499     517.356
  P        1.807     589.654     519.145
  C        1.663     587.057     519.251
  O        2.301     588.201     518.677
  C        0.389     586.734     518.479
  O        0.654     586.791     517.037
  C       -0.155     585.337     518.731
  O       -0.859     585.248     519.952
  C       -1.041     585.139     517.506
  O       -2.332     585.730     517.685
  C       -0.262     585.873     516.397
  N       -0.288     583.448     511.899
  C       -1.112     584.370     512.436
  N       -1.023     584.981     513.637
  C        0.069     584.567     514.308
  C        0.999     583.629     513.883
  C        0.795     583.061     512.619
  N        1.626     582.101     512.079
  N        1.957     583.436     514.860
  C        1.621     584.235     515.852
  N        0.483     584.948     515.546
  O        0.450     589.364     519.953
  O        2.788     590.428     519.961
  H       -2.170     586.666     517.909
  H        0.340     590.028     520.657
  H       -1.966     584.655     511.813
  H        2.148     584.341     516.789
  H       -0.915     586.460     515.752
  H       -1.189     584.081     517.303
  H        0.666     584.594     518.707
  H       -0.364     587.504     518.700
  H        1.411     587.259     520.301
  H        2.357     586.216     519.209
  H        1.383     581.687     511.210
  H        2.374     581.718     512.661
  P       -1.260     583.782     520.484
  C       -3.830     583.280     520.488
  O       -2.618     583.365     519.748
  O       -1.706     584.033     522.003
  O       -0.159     582.766     520.393
  H       -1.448     583.272     522.560
  H       -4.627     582.990     519.835
  H       -4.052     584.234     520.920
  H       -3.723     582.553     521.265

 6  7  8  9  10  11  12  13  14  15  25  28  32  33  34  35 0
 6-311+G(2d,p)
 ****
 36  37  40 0
 6-311+G(2d,p)
 ****
 1  2  3  4  5  16  17  18  19  20  21  22  23  24 0
 3-21G
 ****
 26  27  29  30  31  38  39 41  42  43  44  45  46  47  48 0
 3-21G
 ****


