%nproc=1
%NoSave
%Mem=1900MB
#P OB98/GEN NMR

erre ene a

0 1
  C       58.741     -81.607      98.475
  O       57.576     -82.105      97.841
  P       56.756     -83.283      98.560
  C       57.971     -85.254      97.320
  O       57.702     -84.577      98.533
  C       57.761     -86.762      97.492
  O       58.703     -87.260      98.482
  C       56.354     -87.158      97.960
  O       56.033     -88.405      97.330
  C       56.538     -87.348      99.457
  O       55.535     -88.170     100.030
  C       57.948     -87.948      99.497
  N       58.598     -87.816     100.800
  C       59.157     -88.958     101.366
  O       59.116     -90.071     100.846
  N       59.753     -88.784     102.590
  C       59.785     -87.627     103.313
  O       60.317     -87.534     104.413
  C       59.138     -86.467     102.685
  C       58.594     -86.610     101.477
  O       55.636     -83.593      97.463
  O       56.235     -82.915      99.907
  H       55.960     -83.503      96.551
  H       54.666     -87.802      99.783
  H       60.197     -89.591     103.003
  H       59.128     -85.533     103.237
  H       58.108     -85.769     100.994
  H       57.913     -89.005      99.208
  H       56.502     -86.373      99.954
  H       55.601     -86.407      97.705
  H       58.001     -87.253      96.541
  H       59.007     -85.070      97.023
  H       57.320     -84.858      96.532
  P       54.559     -88.581      96.704
  C       53.651     -90.083      98.647
  O       53.559     -88.881      97.916
  O       54.719     -90.021      96.009
  O       54.153     -87.516      95.740
  H       55.118     -90.681      96.599
  H       53.138     -89.954      99.602
  H       54.693     -90.349      98.846
  H       53.166     -90.891      98.093
  H       59.170     -80.832      97.875
  H       59.450     -82.400      98.593
  H       58.483     -81.213      99.436

 3  4  5  6  7  8  9  10  11  12  13  24  28  29  30  31  32 0
 6-311+G(2d,p)
 ****
 33  34 0
 6-311+G(2d,p)
 ****
 1  2  14  15  16  17  18  19  20  21  22  23  25  26  27 0
 3-21G
 ****
 35  36  37  38  39  40  41  42  43  44  45 0
 3-21G
 ****


