%nproc=1
%NoSave
%Mem=1900MB
#P OB98/GEN NMR

erre ene a

0 1
  C        8.056      20.260      72.415
  O        8.340      19.959      71.059
  P        9.826      20.082      70.484
  C       10.149      22.231      69.009
  O       10.163      21.629      70.285
  C        8.730      22.736      68.712
  O        8.286      23.616      69.765
  C        8.672      23.508      67.396
  O        8.281      22.655      66.333
  C        7.665      24.602      67.698
  O        6.323      24.101      67.562
  C        7.976      24.910      69.182
  N        9.093      25.827      69.483
  C        8.871      27.200      69.491
  O        7.777      27.717      69.288
  N        9.979      27.979      69.721
  C       11.239      27.519      69.981
  O       12.250      28.209      69.943
  C       11.346      26.078      70.227
  C       10.294      25.308      69.949
  O        9.680      19.540      68.987
  O       10.874      19.343      71.250
  H        5.724      24.793      67.894
  H        9.967      18.610      68.929
  H        9.854      28.978      69.588
  H       12.293      25.685      70.574
  H       10.362      24.232      70.088
  H        7.089      25.302      69.694
  H        7.755      25.426      66.992
  H        9.645      23.975      67.188
  H        8.047      21.877      68.680
  H       10.462      21.506      68.249
  H       10.861      23.061      68.976
  P        8.417      23.164      64.822
  C        6.147      23.814      63.823
  O        7.234      24.229      64.626
  O        8.491      22.091      63.785
  O        9.750      24.054      64.852
  H       10.509      23.526      64.531
  H        5.342      24.546      63.917
  H        5.780      22.837      64.151
  H        6.460      23.762      62.777
  H        7.012      20.117      72.601
  H        8.318      21.278      72.617
  H        8.624      19.613      73.050

 3  4  5  6  7  8  9  10  11  12  13  23  28  29  30  31  32 0
 6-311+G(2d,p)
 ****
 33  34 0
 6-311+G(2d,p)
 ****
 1  2  14  15  16  17  18  19  20  21  22  24  25  26  27 0
 3-21G
 ****
 35  36  37  38  39  40  41  42  43  44  45 0
 3-21G
 ****


