%nproc=1
%NoSave
%Mem=1900MB
#P OB98/GEN NMR

erre ene a

0 1
  C      -98.807     429.353    -309.348
  O      -97.772     429.530    -308.396
  P      -97.466     428.316    -307.377
  C      -97.065     430.252    -305.634
  O      -97.563     428.964    -305.900
  C      -97.912     430.953    -304.566
  O      -99.265     431.102    -305.047
  C      -98.033     430.177    -303.250
  O      -96.859     430.291    -302.467
  C      -99.282     430.808    -302.638
  O      -98.955     432.073    -302.026
  C     -100.151     431.042    -303.909
  N     -101.205     430.044    -304.078
  C     -102.512     430.499    -304.027
  O     -102.810     431.691    -303.853
  N     -103.464     429.540    -304.170
  C     -103.277     428.202    -304.279
  O     -104.191     427.369    -304.349
  C     -101.870     427.768    -304.299
  C     -100.918     428.699    -304.194
  O      -95.909     428.095    -307.625
  O      -98.329     427.120    -307.621
  H      -95.473     428.915    -307.929
  H      -99.809     432.501    -301.797
  H     -104.439     429.860    -304.158
  H     -101.669     426.698    -304.374
  H      -99.868     428.404    -304.196
  H     -100.635     432.043    -303.837
  H      -99.747     430.179    -301.883
  H      -98.223     429.108    -303.460
  H      -97.491     431.954    -304.395
  H      -97.084     430.847    -306.564
  H      -96.022     430.177    -305.310
  P      -96.419     428.994    -301.614
  C      -94.994     430.432    -299.953
  O      -96.067     429.528    -300.140
  O      -94.996     428.648    -302.274
  O      -97.425     427.877    -301.679
  H      -94.468     429.450    -302.430
  H      -95.120     430.940    -298.983
  H      -94.959     431.183    -300.752
  H      -94.055     429.872    -299.928
  H      -98.893     430.234    -309.949
  H      -99.732     429.176    -308.840
  H      -98.577     428.516    -309.973

 3  4  5  6  7  8  9  10  11  12  13  24  28  29  30  31  32 0
 6-311+G(2d,p)
 ****
 33  34 0
 6-311+G(2d,p)
 ****
 1  2  14  15  16  17  18  19  20  21  22  23  25  26  27 0
 3-21G
 ****
 35  36  37  38  39  40  41  42  43  44  45 0
 3-21G
 ****


