%nproc=1
%NoSave
%Mem=1900MB
#P OB98/GEN NMR

erre ene a

0 1
  C       49.244      27.190    -180.308
  O       48.967      26.339    -179.214
  H       49.684      28.115    -179.926
  H       48.321      27.437    -180.837
  H       49.955      26.722    -180.993
  P       48.404      24.866    -179.503
  C       49.107      23.126    -181.260
  O       49.551      24.085    -180.312
  C       49.889      21.823    -181.112
  O       51.287      22.083    -181.399
  C       49.802      21.209    -179.711
  O       49.744      19.788    -179.842
  C       51.117      21.608    -179.070
  O       51.518      20.700    -178.046
  C       52.060      21.628    -180.271
  N       56.524      22.014    -177.941
  C       55.654      20.945    -178.030
  N       56.011      19.816    -177.383
  N       54.530      20.981    -178.695
  C       54.305      22.170    -179.306
  C       55.085      23.300    -179.292
  C       56.323      23.253    -178.542
  O       57.125      24.170    -178.416
  N       54.504      24.314    -180.012
  C       53.373      23.797    -180.456
  N       53.201      22.501    -180.046
  O       47.053      24.810    -180.140
  O       48.418      24.157    -178.071
  H       50.762      20.615    -177.425
  H       47.525      24.156    -177.678
  H       57.373      21.935    -177.408
  H       52.645      24.314    -181.067
  H       52.461      20.634    -180.504
  H       51.024      22.608    -178.627
  H       56.870      19.710    -176.866
  H       48.940      21.567    -179.142
  H       55.400      19.010    -177.453
  H       49.535      21.117    -181.873
  H       49.262      23.537    -182.264
  H       48.037      22.940    -181.116
  P       48.319      19.062    -179.745
  C       46.190      19.813    -180.985
  O       47.524      19.332    -181.111
  O       47.545      19.322    -178.495
  O       48.704      17.508    -179.871
  H       48.050      16.981    -179.373
  H       45.768      19.953    -181.958
  H       46.195      20.746    -180.461
  H       45.604      19.101    -180.442

 6  7  8  9  10  11  12  13  14  15  26  29  33  34 0
 6-311+G(2d,p)
 ****
 36  38  39  40  41 0
 6-311+G(2d,p)
 ****
 1  2  3  4  5  16  17  18  19  20  21  22  23  24  25 0
 3-21G
 ****
 27  28  30  31  32  35  37  42  43  44  45  46  47 0
 3-21G
 ****
 48  49 0
 3-21G
 ****


