%nproc=1
%NoSave
%Mem=1900MB
#P OB98/GEN NMR

erre ene a

0 1
  C        0.903    -892.998     -85.150
  O        0.949    -894.288     -85.735
  H        1.854    -892.808     -84.646
  H        0.102    -892.948     -84.412
  H        0.752    -892.238     -85.918
  P       -0.247    -894.688     -86.719
  C       -1.514    -895.878     -84.788
  O       -1.548    -894.888     -85.802
  C       -2.805    -895.828     -83.958
  O       -3.924    -895.618     -84.861
  C       -3.088    -897.128     -83.175
  O       -3.698    -896.758     -81.923
  C       -4.108    -897.828     -84.035
  O       -4.914    -898.758     -83.335
  C       -4.905    -896.648     -84.597
  N       -5.665    -896.978     -85.793
  C       -6.844    -897.698     -85.620
  O       -7.343    -897.988     -84.530
  N       -7.481    -898.078     -86.778
  C       -7.042    -897.848     -88.048
  O       -7.652    -898.228     -89.042
  C       -5.786    -897.088     -88.173
  C       -5.164    -896.698     -87.046
  O        0.129    -896.178     -87.151
  O       -0.445    -893.788     -87.891
  H        0.690    -896.178     -87.951
  H       -5.401    -898.278     -82.634
  H       -8.337    -898.588     -86.679
  H       -5.401    -896.898     -89.157
  H       -4.213    -896.168     -87.103
  H       -5.578    -896.248     -83.824
  H       -3.600    -898.368     -84.849
  H       -2.207    -897.738     -82.992
  H       -2.764    -894.968     -83.293
  H       -0.660    -895.688     -84.124
  H       -1.394    -896.868     -85.248
  P       -2.740    -896.618     -80.648
  C       -2.484    -899.228     -80.778
  O       -1.859    -897.968     -80.631
  O       -3.787    -896.808     -79.454
  O       -1.973    -895.338     -80.635
  H       -4.491    -897.448     -79.661
  H       -1.744    -900.000     -80.742
  H       -2.993    -899.266     -81.718
  H       -3.188    -899.372     -79.985

 6  7  8  9  10  11  12  13  14  15  16  27  31  32  33  34  35 0
 6-311+G(2d,p)
 ****
 36  37 0
 6-311+G(2d,p)
 ****
 1  2  3  4  5  17  18  19  20  21  22  23  24  25 0
 3-21G
 ****
 26  28  29  30  38  39  40  41  42  43  44  45 0
 3-21G
 ****


