%nproc=1
%NoSave
%Mem=1900MB
#P OB98/GEN NMR

erre ene a

0 1
  C      311.696     414.608    -167.271
  O      310.680     414.578    -166.290
  H      312.081     413.593    -167.404
  H      312.516     415.252    -166.945
  H      311.304     414.961    -168.227
  P      309.829     415.909    -166.021
  C      308.453     415.262    -168.101
  O      309.129     416.303    -167.407
  C      306.957     415.563    -168.160
  O      306.737     416.857    -168.763
  C      306.166     414.578    -169.010
  O      305.979     413.346    -168.342
  C      304.898     415.374    -169.262
  O      303.998     415.280    -168.152
  C      305.441     416.814    -169.403
  N      305.528     417.234    -170.800
  C      304.796     418.363    -171.149
  O      304.113     419.004    -170.350
  N      304.823     418.706    -172.474
  C      305.380     417.963    -173.474
  O      305.171     418.173    -174.665
  C      306.192     416.816    -173.041
  C      306.217     416.501    -171.745
  O      310.561     417.017    -165.340
  O      308.598     415.394    -165.134
  H      308.758     415.623    -164.199
  H      303.287     415.934    -168.328
  H      304.259     419.501    -172.741
  H      306.710     416.243    -173.800
  H      306.782     415.638    -171.405
  H      304.799     417.520    -168.864
  H      304.370     415.021    -170.150
  H      306.679     414.416    -169.965
  H      306.570     415.593    -167.134
  H      308.614     414.320    -167.565
  H      308.872     415.175    -169.108
  P      305.878     411.982    -169.174
  C      308.378     411.421    -168.970
  O      307.301     411.704    -169.858
  O      304.710     411.885    -170.099
  O      305.802     410.845    -168.048
  H      305.048     410.255    -168.247
  H      309.271     411.253    -169.535
  H      308.148     410.546    -168.398
  H      308.524     412.251    -168.310

 6  7  8  9  10  11  12  13  14  15  16  27  31  32  33  34  35 0
 6-311+G(2d,p)
 ****
 36  37 0
 6-311+G(2d,p)
 ****
 1  2  3  4  5  17  18  19  20  21  22  23  24  25 0
 3-21G
 ****
 26  28  29  30  38  39  40  41  42  43  44  45 0
 3-21G
 ****


