%nproc=1
%NoSave
%Mem=1900MB
#P OB98/GEN NMR

erre ene a

0 1
  C      177.478     392.791     392.060
  O      176.544     392.784     390.998
  H      178.466     392.518     391.679
  H      177.530     393.798     392.478
  H      177.176     392.095     392.848
  P      176.083     391.355     390.433
  C      173.603     391.568     391.168
  O      174.841     390.890     391.339
  C      172.445     390.686     391.637
  O      172.256     389.616     390.667
  C      172.656     390.041     393.014
  O      171.406     390.043     393.711
  C      173.029     388.610     392.675
  O      172.722     387.695     393.724
  C      172.215     388.382     391.406
  N      172.315     383.314     390.996
  C      171.491     384.147     391.669
  N      171.504     385.495     391.680
  C      172.444     385.973     390.844
  C      173.351     385.245     390.090
  C      173.273     383.847     390.203
  N      174.149     382.987     389.579
  N      174.195     386.098     389.405
  C      173.823     387.309     389.758
  N      172.767     387.284     390.630
  O      177.277     390.396     390.912
  O      175.868     391.283     388.960
  H      173.267     387.921     394.505
  H      177.984     390.399     390.240
  H      170.732     383.672     392.283
  H      174.294     388.231     389.444
  H      171.164     388.139     391.616
  H      174.105     388.550     392.469
  H      173.418     390.540     393.625
  H      171.528     391.289     391.627
  H      173.468     391.797     390.109
  H      174.082     382.005     389.803
  H      174.933     383.372     389.073
  H      173.620     392.502     391.736
  P      171.453     389.967     395.311
  C      171.076     392.534     395.551
  O      171.878     391.403     395.881
  O      172.742     389.061     395.596
  O      170.223     389.381     395.929
  H      172.608     388.529     396.406
  H      171.490     393.410     396.005
  H      170.080     392.383     395.912
  H      171.055     392.659     394.489

 6  7  8  9  10  11  12  13  14  15  25  28  32  33  34  35 0
 6-311+G(2d,p)
 ****
 36  39  40 0
 6-311+G(2d,p)
 ****
 1  2  3  4  5  16  17  18  19  20  21  22  23  24 0
 3-21G
 ****
 26  27  29  30  31  37  38  41  42  43  44  45  46  47 0
 3-21G
 ****
 48 0
 3-21G
 ****


