%nproc=1
%NoSave
%Mem=1900MB
#P OB98/GEN NMR

erre ene a

0 1
  C      619.377    -230.786      53.787
  O      620.301    -229.952      54.456
  H      619.026    -230.271      52.890
  H      618.522    -230.984      54.438
  H      619.844    -231.727      53.488
  P      621.190    -230.566      55.637
  C      623.728    -230.923      55.933
  O      622.646    -230.837      55.014
  C      625.067    -230.980      55.193
  O      625.101    -232.188      54.378
  C      625.319    -229.787      54.259
  O      626.734    -229.563      54.217
  C      624.831    -230.331      52.928
  O      625.321    -229.570      51.844
  C      625.323    -231.778      53.014
  N      624.650    -232.655      52.055
  C      625.254    -232.792      50.810
  O      626.277    -232.192      50.487
  N      624.613    -233.609      49.922
  C      623.420    -234.240      50.133
  O      622.875    -234.935      49.285
  C      622.805    -234.026      51.455
  C      623.443    -233.256      52.343
  O      620.593    -231.729      56.358
  O      621.457    -229.329      56.616
  H      626.299    -229.629      51.801
  H      621.550    -229.644      57.537
  H      625.038    -233.726      49.014
  H      621.857    -234.502      51.650
  H      623.020    -233.080      53.326
  H      626.401    -231.834      52.820
  H      623.737    -230.304      52.878
  H      624.795    -228.880      54.569
  H      625.873    -231.077      55.935
  H      623.593    -231.827      56.534
  H      623.709    -230.050      56.600
  P      627.395    -228.185      54.707
  C      628.043    -227.044      56.924
  O      627.596    -228.247      56.297
  O      626.686    -226.964      54.222
  O      628.895    -228.228      54.142
  H      629.218    -227.320      53.994
  H      628.140    -227.206      57.977
  H      627.332    -226.264      56.747
  H      628.992    -226.761      56.518

 6  7  8  9  10  11  12  13  14  15  16  26  31  32  33  34  35 0
 6-311+G(2d,p)
 ****
 36  37 0
 6-311+G(2d,p)
 ****
 1  2  3  4  5  17  18  19  20  21  22  23  24  25 0
 3-21G
 ****
 27  28  29  30  38  39  40  41  42  43  44  45 0
 3-21G
 ****


