%nproc=1
%NoSave
%Mem=1900MB
#P OB98/GEN NMR

erre ene a

0 1
  C     -205.871    -259.393     193.806
  O     -206.490    -260.301     192.884
  P     -206.796    -261.834     193.245
  C     -208.264    -263.775     192.389
  O     -207.876    -262.413     192.217
  C     -209.218    -264.238     191.284
  O     -210.525    -263.660     191.470
  C     -208.799    -263.847     189.872
  O     -207.744    -264.669     189.407
  C     -210.115    -264.006     189.119
  O     -210.342    -265.381     188.761
  C     -211.141    -263.542     190.171
  N     -211.617    -262.184     189.931
  C     -212.502    -262.011     188.865
  O     -212.812    -262.965     188.147
  N     -213.005    -260.756     188.623
  C     -212.597    -259.748     189.333
  N     -213.133    -258.531     189.056
  C     -211.592    -259.871     190.405
  C     -211.150    -261.106     190.649
  O     -207.137    -262.061     194.684
  O     -205.454    -262.624     192.859
  H     -211.246    -265.423     188.388
  H     -205.355    -263.393     193.455
  H     -211.257    -259.006     190.953
  H     -210.417    -261.286     191.425
  H     -212.009    -264.214     190.186
  H     -210.145    -263.421     188.197
  H     -208.495    -262.792     189.853
  H     -209.318    -265.328     191.364
  H     -213.826    -258.481     188.315
  H     -208.765    -263.868     193.362
  H     -212.885    -257.684     189.546
  H     -207.363    -264.398     192.400
  P     -206.393    -264.003     188.863
  C     -203.867    -264.365     189.140
  O     -205.164    -264.817     189.479
  O     -206.305    -262.517     189.001
  O     -206.354    -264.429     187.315
  H     -205.916    -263.729     186.801
  H     -203.163    -264.712     189.899
  H     -203.835    -263.274     189.092
  H     -203.579    -264.779     188.170
  H     -205.769    -258.432     193.346
  H     -204.904    -259.763     194.076
  H     -206.478    -259.306     194.683

 3  4  5  6  7  8  9  10  11  12  13  23  27  28  29  30  32 0
 6-311+G(2d,p)
 ****
 34  35 0
 6-311+G(2d,p)
 ****
 1  2  14  15  16  17  18  19  20  21  22  24  25  26 0
 3-21G
 ****
 31  33  36  37  38  39  40  41  42  43  44  45  46 0
 3-21G
 ****


