%nproc=1
%NoSave
%Mem=1900MB
#P OB98/GEN NMR

erre ene a

0 1
  C      238.384    -311.048    -170.256
  O      239.791    -310.981    -170.281
  H      238.077    -311.546    -169.331
  H      238.012    -311.635    -171.100
  H      237.949    -310.045    -170.275
  P      240.524    -310.332    -171.554
  C      241.917    -312.482    -171.723
  O      241.060    -311.584    -172.416
  C      242.523    -313.511    -172.679
  O      241.470    -314.356    -173.215
  C      243.264    -312.885    -173.871
  O      244.532    -313.523    -174.041
  C      242.368    -313.206    -175.057
  O      243.068    -313.225    -176.296
  C      241.767    -314.543    -174.610
  N      240.588    -314.900    -175.387
  C      240.802    -315.751    -176.475
  O      241.936    -316.161    -176.728
  N      239.741    -316.075    -177.281
  C      238.577    -315.553    -177.050
  N      237.575    -315.891    -177.903
  C      238.312    -314.627    -175.928
  C      239.352    -314.350    -175.142
  O      241.554    -309.306    -171.225
  O      239.338    -309.763    -172.464
  H      242.545    -313.747    -176.942
  H      239.699    -309.064    -173.058
  H      237.326    -314.216    -175.782
  H      239.255    -313.681    -174.294
  H      242.503    -315.353    -174.697
  H      241.576    -312.447    -175.127
  H      243.418    -311.812    -173.765
  H      243.185    -314.171    -172.104
  H      237.801    -316.522    -178.662
  H      241.338    -312.983    -170.939
  H      236.635    -315.530    -177.838
  H      242.723    -311.904    -171.262
  P      245.745    -312.933    -173.173
  C      246.871    -311.604    -175.096
  O      246.207    -311.550    -173.842
  O      246.948    -313.938    -173.490
  O      245.453    -312.868    -171.711
  H      247.148    -314.475    -172.700
  H      247.116    -310.612    -175.413
  H      246.230    -312.062    -175.820
  H      247.768    -312.179    -175.000

 6  7  8  9  10  11  12  13  14  15  16  26  30  31  32  33  35 0
 6-311+G(2d,p)
 ****
 37  38 0
 6-311+G(2d,p)
 ****
 1  2  3  4  5  17  18  19  20  21  22  23  24  25 0
 3-21G
 ****
 27  28  29  34  36  39  40  41  42  43  44  45  46 0
 3-21G
 ****


