%nproc=1
%NoSave
%Mem=1900MB
#P OB98/GEN NMR

erre ene a

0 1
  C     -269.985     408.400    -299.564
  O     -271.375     408.752    -299.542
  P     -271.781     410.197    -298.981
  C     -271.013     412.192    -300.469
  O     -271.988     411.190    -300.221
  C     -271.392     413.028    -301.695
  O     -271.333     412.256    -302.911
  C     -272.809     413.584    -301.639
  O     -272.872     414.766    -300.856
  C     -273.057     413.901    -303.104
  O     -272.425     415.157    -303.443
  C     -272.348     412.744    -303.814
  N     -274.262     409.973    -307.673
  C     -273.425     411.032    -307.652
  N     -272.973     411.728    -306.591
  C     -273.469     411.220    -305.448
  C     -274.334     410.143    -305.309
  C     -274.737     409.507    -306.494
  N     -275.589     408.424    -306.507
  N     -274.632     409.919    -303.983
  C     -273.941     410.834    -303.328
  N     -273.233     411.647    -304.167
  O     -270.418     410.720    -298.321
  O     -272.893     410.169    -297.991
  H     -272.638     415.342    -304.379
  H     -270.617     411.260    -297.535
  H     -273.065     411.366    -308.627
  H     -273.923     410.944    -302.248
  H     -271.843     413.066    -304.736
  H     -274.119     414.009    -303.339
  H     -273.521     412.819    -301.294
  H     -270.673     413.855    -301.776
  H     -270.034     411.731    -300.615
  H     -275.812     408.005    -307.397
  H     -275.926     408.056    -305.628
  H     -270.918     412.826    -299.576
  P     -273.660     414.683    -299.457
  C     -272.880     414.211    -297.020
  O     -272.595     414.098    -298.403
  O     -274.679     413.472    -299.695
  O     -274.352     415.939    -299.063
  H     -275.489     413.608    -299.160
  H     -272.238     413.517    -296.474
  H     -273.926     413.963    -296.811
  H     -272.669     415.230    -296.680
  H     -269.873     407.413    -299.962
  H     -269.594     408.430    -298.569
  H     -269.451     409.095    -300.178

 3  4  5  6  7  8  9  10  11  12  22  25  29  30  31  32 0
 6-311+G(2d,p)
 ****
 33  36  37 0
 6-311+G(2d,p)
 ****
 1  2  13  14  15  16  17  18  19  20  21  23  24  26 0
 3-21G
 ****
 27  28  34  35  38  39  40  41  42  43  44  45  46  47  48 0
 3-21G
 ****


