%nproc=1
%NoSave
%Mem=1900MB
#P OB98/GEN NMR

erre ene a

0 1
  C     -196.284     -85.998     371.415
  O     -197.488     -85.752     370.715
  P     -198.887     -85.804     371.486
  C     -200.091     -83.575     371.040
  O     -199.260     -84.311     371.937
  C     -200.139     -82.102     371.445
  O     -198.862     -81.472     371.197
  C     -201.160     -81.279     370.677
  O     -202.472     -81.524     371.147
  C     -200.647     -79.866     370.923
  O     -201.083     -79.385     372.206
  C     -199.124     -80.080     370.919
  N     -195.016     -77.909     368.807
  C     -195.423     -78.003     370.087
  N     -196.553     -78.567     370.574
  C     -197.309     -79.043     369.571
  C     -197.038     -78.990     368.206
  C     -195.817     -78.406     367.830
  N     -195.361     -78.363     366.529
  N     -198.074     -79.558     367.490
  C     -198.948     -79.939     368.394
  N     -198.505     -79.704     369.664
  O     -198.981     -86.830     372.569
  O     -199.951     -86.104     370.329
  H     -201.988     -79.718     372.346
  H     -200.407     -86.950     370.517
  H     -194.751     -77.582     370.832
  H     -199.908     -80.397     368.186
  H     -198.633     -79.501     371.714
  H     -200.999     -79.153     370.170
  H     -201.090     -81.505     369.603
  H     -200.331     -82.054     372.527
  H     -201.100     -84.003     371.079
  H     -194.405     -78.055     366.394
  H     -195.782     -78.985     365.850
  H     -199.702     -83.676     370.022
  P     -203.458     -82.475     370.318
  C     -204.667     -83.370     372.394
  O     -203.852     -83.693     371.283
  O     -202.979     -82.868     368.959
  O     -204.810     -81.628     370.239
  H     -205.268     -81.827     369.400
  H     -204.050     -82.910     373.181
  H     -205.110     -84.284     372.786
  H     -205.467     -82.677     372.113
  H     -195.457     -85.921     370.740
  H     -196.310     -86.982     371.835
  H     -196.174     -85.278     372.199

 3  4  5  6  7  8  9  10  11  12  22  25  29  30  31  32 0
 6-311+G(2d,p)
 ****
 33  36  37 0
 6-311+G(2d,p)
 ****
 1  2  13  14  15  16  17  18  19  20  21  23  24  26 0
 3-21G
 ****
 27  28  34  35  38  39  40  41  42  43  44  45  46  47  48 0
 3-21G
 ****


