%nproc=1
%NoSave
%Mem=1900MB
#P OB98/GEN NMR

erre ene a

0 1
  C      -32.721     -28.737    -139.591
  O      -31.494     -29.022    -138.952
  H      -32.654     -27.751    -140.054
  H      -33.532     -28.723    -138.859
  H      -32.937     -29.474    -140.367
  P      -31.252     -30.493    -138.363
  C      -29.377     -31.242    -139.968
  O      -30.737     -31.400    -139.580
  C      -28.722     -32.611    -140.127
  O      -28.525     -33.223    -138.834
  C      -29.546     -33.605    -140.934
  O      -29.472     -33.319    -142.318
  C      -28.897     -34.916    -140.516
  O      -27.678     -35.137    -141.242
  C      -28.609     -34.654    -139.019
  N      -29.612     -35.238    -138.129
  C      -29.611     -36.625    -138.019
  O      -28.845     -37.346    -138.656
  N      -30.538     -37.159    -137.164
  C      -31.496     -36.459    -136.487
  O      -32.339     -36.992    -135.772
  C      -31.473     -35.001    -136.669
  C      -30.547     -34.467    -137.465
  O      -32.383     -31.074    -137.581
  O      -29.939     -30.324    -137.461
  H      -27.934     -35.486    -142.118
  H      -30.192     -30.253    -136.522
  H      -30.558     -38.162    -137.081
  H      -32.223     -34.417    -136.152
  H      -30.517     -33.392    -137.616
  H      -27.630     -35.064    -138.743
  H      -29.534     -35.781    -140.704
  H      -30.587     -33.604    -140.590
  H      -27.733     -32.465    -140.582
  H      -28.854     -30.674    -139.190
  H      -29.340     -30.683    -140.906
  P      -30.776     -33.392    -143.240
  C      -31.320     -30.935    -143.713
  O      -31.657     -32.080    -142.941
  O      -31.533     -34.677    -143.171
  O      -30.223     -33.127    -144.717
  H      -30.219     -33.962    -145.224
  H      -31.959     -30.121    -143.441
  H      -31.446     -31.156    -144.752
  H      -30.301     -30.666    -143.527

 6  7  8  9  10  11  12  13  14  15  16  26  31  32  33  34  35 0
 6-311+G(2d,p)
 ****
 36  37 0
 6-311+G(2d,p)
 ****
 1  2  3  4  5  17  18  19  20  21  22  23  24  25 0
 3-21G
 ****
 27  28  29  30  38  39  40  41  42  43  44  45 0
 3-21G
 ****


