%nproc=1
%NoSave
%Mem=1900MB
#P OB98/GEN NMR

erre ene a

0 1
  C     -107.949    -110.198     -32.616
  O     -107.177    -110.961     -31.709
  P     -105.578    -111.040     -31.828
  C     -105.794    -113.394     -32.838
  O     -105.280    -112.083     -33.012
  C     -105.130    -114.385     -33.798
  O     -105.444    -114.017     -35.170
  C     -103.600    -114.466     -33.678
  O     -103.245    -115.823     -33.960
  C     -103.135    -113.552     -34.797
  O     -101.787    -113.788     -35.176
  C     -104.189    -113.854     -35.872
  N     -104.255    -112.805     -36.884
  C     -103.643    -113.077     -38.111
  O     -103.016    -114.125     -38.276
  N     -103.707    -112.133     -39.107
  C     -104.243    -110.978     -38.858
  N     -104.282    -110.084     -39.884
  C     -104.787    -110.604     -37.539
  C     -104.775    -111.561     -36.611
  O     -104.862    -111.317     -30.550
  O     -105.179    -109.639     -32.493
  H     -101.478    -113.026     -35.713
  H     -105.211    -108.916     -31.817
  H     -105.173    -109.611     -37.363
  H     -105.152    -111.383     -35.615
  H     -103.969    -114.807     -36.373
  H     -103.213    -112.506     -34.476
  H     -103.221    -114.160     -32.701
  H     -105.571    -115.374     -33.620
  H     -103.911    -110.385     -40.778
  H     -106.866    -113.370     -33.047
  H     -104.750    -109.190     -39.823
  H     -105.662    -113.714     -31.799
  P     -102.001    -116.527     -33.233
  C     -100.497    -116.101     -35.264
  O     -100.671    -115.901     -33.872
  O     -102.043    -118.022     -33.212
  O     -102.014    -115.921     -31.749
  H     -101.455    -116.474     -31.167
  H      -99.731    -115.410     -35.630
  H     -101.430    -115.918     -35.806
  H     -100.166    -117.128     -35.446
  H     -108.985    -110.281     -32.360
  H     -107.796    -110.564     -33.610
  H     -107.650    -109.172     -32.564

 3  4  5  6  7  8  9  10  11  12  13  23  27  28  29  30  32 0
 6-311+G(2d,p)
 ****
 34  35 0
 6-311+G(2d,p)
 ****
 1  2  14  15  16  17  18  19  20  21  22  24  25  26 0
 3-21G
 ****
 31  33  36  37  38  39  40  41  42  43  44  45  46 0
 3-21G
 ****


