%nproc=1
%NoSave
%Mem=1900MB
#P OB98/GEN NMR

erre ene a

0 1
  C     -344.522     484.604      29.492
  O     -343.895     485.007      28.285
  P     -344.592     486.183      27.433
  C     -345.067     484.549      25.422
  O     -345.574     485.445      26.402
  C     -346.222     483.838      24.712
  O     -346.930     483.001      25.647
  C     -347.277     484.767      24.127
  O     -346.838     485.367      22.915
  C     -348.456     483.815      23.977
  O     -348.315     483.020      22.786
  C     -348.309     482.929      25.229
  N     -349.211     483.306      26.316
  C     -350.574     483.125      26.079
  O     -351.015     482.671      25.022
  N     -351.411     483.500      27.095
  C     -351.034     484.087      28.268
  O     -351.830     484.447      29.132
  C     -349.591     484.290      28.455
  C     -348.756     483.891      27.481
  O     -343.358     486.672      26.544
  O     -345.218     487.231      28.288
  H     -342.709     485.959      26.402
  H     -348.019     483.627      22.084
  H     -352.400     483.357      26.956
  H     -349.253     484.756      29.365
  H     -347.691     484.038      27.596
  H     -348.504     481.876      24.975
  H     -349.417     484.342      23.908
  H     -347.525     485.554      24.852
  H     -345.797     483.194      23.931
  H     -344.424     483.811      25.911
  H     -344.469     485.116      24.704
  P     -347.790     486.504      22.291
  C     -348.201     485.248      20.033
  O     -348.736     485.766      21.230
  O     -346.745     487.320      21.395
  O     -348.495     487.326      23.324
  H     -346.134     486.738      20.899
  H     -348.888     484.502      19.631
  H     -347.223     484.786      20.202
  H     -348.094     486.061      19.303
  H     -343.951     483.821      29.946
  H     -345.509     484.249      29.280
  H     -344.579     485.438      30.160

 3  4  5  6  7  8  9  10  11  12  13  24  28  29  30  31  32 0
 6-311+G(2d,p)
 ****
 33  34 0
 6-311+G(2d,p)
 ****
 1  2  14  15  16  17  18  19  20  21  22  23  25  26  27 0
 3-21G
 ****
 35  36  37  38  39  40  41  42  43  44  45 0
 3-21G
 ****


