%nproc=1
%NoSave
%Mem=1900MB
#P OB98/GEN NMR

erre ene a

0 1
  C      -89.035    -266.062     214.958
  O      -88.995    -267.013     213.908
  P      -87.622    -267.756     213.554
  C      -85.910    -267.633     211.598
  O      -87.073    -267.106     212.196
  C      -85.979    -267.531     210.067
  O      -87.005    -268.446     209.608
  C      -86.374    -266.158     209.533
  O      -86.000    -266.084     208.156
  C      -87.880    -266.201     209.648
  O      -88.514    -265.239     208.810
  C      -88.200    -267.682     209.318
  N      -89.333    -268.182     210.116
  C      -90.555    -267.535     209.951
  O      -90.730    -266.638     209.125
  N      -91.546    -267.895     210.821
  C      -91.409    -268.785     211.846
  O      -92.188    -268.867     212.790
  C      -90.185    -269.602     211.819
  C      -89.204    -269.252     210.984
  O      -88.114    -269.212     213.108
  O      -86.637    -267.821     214.669
  H      -88.328    -265.503     207.880
  H      -88.049    -269.834     213.856
  H      -92.383    -267.327     210.796
  H      -90.102    -270.420     212.522
  H      -88.270    -269.803     210.979
  H      -88.452    -267.811     208.258
  H      -88.167    -265.977     210.682
  H      -85.944    -265.322     210.091
  H      -85.023    -267.855     209.640
  H      -85.783    -268.673     211.911
  H      -85.025    -267.094     211.950
  P      -85.694    -264.634     207.541
  C      -87.085    -262.839     206.339
  O      -87.112    -264.013     207.126
  O      -84.637    -264.581     206.489
  O      -85.294    -263.770     208.830
  H      -84.810    -262.972     208.555
  H      -87.980    -262.810     205.715
  H      -86.199    -262.810     205.693
  H      -87.078    -261.966     206.995
  H      -90.027    -265.672     215.049
  H      -88.357    -265.263     214.742
  H      -88.751    -266.532     215.876

 3  4  5  6  7  8  9  10  11  12  13  23  28  29  30  31  32 0
 6-311+G(2d,p)
 ****
 33  34 0
 6-311+G(2d,p)
 ****
 1  2  14  15  16  17  18  19  20  21  22  24  25  26  27 0
 3-21G
 ****
 35  36  37  38  39  40  41  42  43  44  45 0
 3-21G
 ****


