%nproc=1
%NoSave
%Mem=1900MB
#P OB98/GEN NMR

erre ene a

0 1
  C     -275.285     108.402    -330.020
  O     -274.257     109.065    -330.725
  H     -275.797     109.127    -329.382
  H     -274.863     107.619    -329.386
  H     -276.015     107.969    -330.709
  P     -273.481     108.274    -331.883
  C     -271.309     108.404    -330.500
  O     -272.222     107.562    -331.195
  C     -269.875     107.984    -330.810
  O     -268.945     108.922    -330.228
  C     -269.493     106.620    -330.251
  O     -270.052     105.578    -331.028
  C     -267.974     106.709    -330.297
  O     -267.487     106.449    -331.622
  C     -267.743     108.187    -329.902
  N     -267.388     108.360    -328.493
  C     -266.169     107.823    -328.092
  O     -265.428     107.200    -328.850
  N     -265.837     108.015    -326.778
  C     -266.625     108.601    -325.829
  O     -266.302     108.699    -324.650
  C     -267.918     109.116    -326.303
  C     -268.234     108.976    -327.592
  O     -273.162     109.065    -333.108
  O     -274.452     107.044    -332.213
  H     -268.118     106.869    -332.239
  H     -274.964     107.236    -333.020
  H     -264.964     107.623    -326.465
  H     -268.573     109.582    -325.580
  H     -269.185     109.346    -327.959
  H     -266.938     108.619    -330.511
  H     -267.490     105.990    -329.637
  H     -269.806     106.535    -329.203
  H     -269.741     108.009    -331.899
  H     -271.492     108.308    -329.422
  H     -271.483     109.440    -330.800
  P     -269.579     104.063    -330.830
  C     -268.422     103.957    -333.110
  O     -268.250     103.851    -331.704
  O     -270.636     103.030    -331.045
  O     -269.034     104.022    -329.325
  H     -269.671     103.553    -328.754
  H     -267.482     103.800    -333.597
  H     -268.791     104.932    -333.352
  H     -269.122     103.219    -333.440

 6  7  8  9  10  11  12  13  14  15  16  26  31  32  33  34  35 0
 6-311+G(2d,p)
 ****
 36  37 0
 6-311+G(2d,p)
 ****
 1  2  3  4  5  17  18  19  20  21  22  23  24  25 0
 3-21G
 ****
 27  28  29  30  38  39  40  41  42  43  44  45 0
 3-21G
 ****


