%nproc=1
%NoSave
%Mem=1900MB
#P OB98/GEN NMR

erre ene a

0 1
  C      197.148     114.896    -963.255
  O      196.675     114.583    -961.948
  P      197.604     114.929    -960.691
  C      198.075     112.356    -960.307
  O      198.543     113.684    -960.351
  C      199.257     111.416    -960.006
  O      199.982     111.877    -958.851
  C      198.827     109.983    -959.720
  O      198.693     109.211    -960.901
  C      199.938     109.495    -958.808
  O      201.110     109.166    -959.579
  C      200.193     110.753    -957.946
  N      199.360     110.959    -956.740
  C      199.512     110.118    -955.640
  O      200.306     109.186    -955.593
  N      198.713     110.382    -954.564
  C      197.912     111.478    -954.404
  O      197.265     111.696    -953.386
  C      197.902     112.416    -955.530
  C      198.595     112.110    -956.628
  O      196.577     114.978    -959.466
  O      198.373     116.205    -960.824
  H      201.838     109.002    -958.943
  H      196.531     115.879    -959.094
  H      198.758     109.742    -953.789
  H      197.321     113.321    -955.427
  H      198.591     112.800    -957.475
  H      201.239     110.789    -957.617
  H      199.649     108.579    -958.289
  H      197.897     109.976    -959.148
  H      199.940     111.433    -960.866
  H      197.613     112.074    -961.256
  H      197.311     112.255    -959.534
  P      197.233     108.848    -961.454
  C      197.786     106.491    -960.613
  O      196.801     107.509    -960.683
  O      197.081     108.818    -962.940
  O      196.284     109.955    -960.770
  H      196.131     110.705    -961.394
  H      197.436     105.704    -959.940
  H      198.729     106.888    -960.229
  H      197.946     106.060    -961.608
  H      196.416     114.604    -963.979
  H      198.061     114.369    -963.439
  H      197.322     115.949    -963.328

 3  4  5  6  7  8  9  10  11  12  13  23  28  29  30  31  32 0
 6-311+G(2d,p)
 ****
 33  34 0
 6-311+G(2d,p)
 ****
 1  2  14  15  16  17  18  19  20  21  22  24  25  26  27 0
 3-21G
 ****
 35  36  37  38  39  40  41  42  43  44  45 0
 3-21G
 ****


