%nproc=1
%NoSave
%Mem=1900MB
#P OB98/GEN NMR

erre ene a

0 1
  C      142.015      -1.194    -141.552
  O      140.993      -1.766    -142.342
  H      142.887      -1.853    -141.526
  H      142.311      -0.238    -141.994
  H      141.652      -1.016    -140.535
  P      140.439      -3.200    -141.881
  C      138.928      -1.942    -140.178
  O      139.879      -2.974    -140.392
  C      137.716      -2.517    -139.452
  O      138.122      -3.112    -138.198
  C      136.662      -1.475    -139.093
  O      135.802      -1.176    -140.179
  C      135.918      -2.196    -137.983
  O      135.045      -3.191    -138.547
  C      137.072      -2.868    -137.223
  N      136.854      -1.893    -132.201
  C      136.230      -2.813    -132.970
  N      136.358      -3.021    -134.295
  C      137.246      -2.166    -134.828
  C      137.964      -1.180    -134.171
  C      137.737      -1.052    -132.790
  N      138.347      -0.097    -132.009
  N      138.763      -0.487    -135.059
  C      138.543      -1.058    -136.225
  N      137.609      -2.056    -136.143
  O      141.767      -4.061    -141.638
  O      139.477      -3.859    -142.810
  H      135.610      -3.824    -139.030
  H      141.548      -5.010    -141.571
  H      135.532      -3.464    -132.451
  H      139.022      -0.779    -137.155
  H      136.787      -3.834    -136.791
  H      135.297      -1.524    -137.386
  H      137.118      -0.565    -138.686
  H      137.287      -3.313    -140.074
  H      138.618      -1.534    -141.145
  H      138.008       0.011    -131.065
  H      138.890       0.624    -132.460
  H      139.382      -1.147    -139.579
  P      135.159       0.296    -140.232
  C      137.046       1.288    -141.717
  O      136.379       1.314    -140.460
  O      134.739       0.557    -138.711
  O      134.006       0.439    -141.171
  H      133.944       1.119    -138.661
  H      137.830       2.016    -141.720
  H      136.348       1.513    -142.496
  H      137.462       0.316    -141.880

 6  7  8  9  10  11  12  13  14  15  25  28  32  33  34  35 0
 6-311+G(2d,p)
 ****
 36  39  40 0
 6-311+G(2d,p)
 ****
 1  2  3  4  5  16  17  18  19  20  21  22  23  24 0
 3-21G
 ****
 26  27  29  30  31  37  38  41  42  43  44  45  46  47 0
 3-21G
 ****
 48 0
 3-21G
 ****


