%nproc=1
%NoSave
%Mem=1900MB
#P OB98/GEN NMR

erre ene a

0 1
  C      -25.378     138.560     171.468
  O      -25.026     139.504     172.497
  P      -26.213     140.423     173.062
  C      -25.486     140.000     175.525
  O      -25.780     140.959     174.513
  C      -24.899     140.699     176.750
  O      -23.597     141.272     176.475
  C      -25.749     141.865     177.258
  O      -26.900     141.391     177.948
  C      -24.737     142.596     178.132
  O      -24.612     141.947     179.409
  C      -23.434     142.430     177.330
  N      -22.780     147.506     177.375
  C      -23.106     146.629     178.347
  N      -23.266     145.286     178.255
  C      -23.034     144.870     176.999
  C      -22.683     145.645     175.901
  C      -22.556     147.028     176.125
  N      -22.233     147.927     175.123
  N      -22.533     144.853     174.778
  C      -22.805     143.626     175.186
  N      -23.102     143.587     176.521
  O      -27.380     139.371     173.380
  O      -26.669     141.476     172.104
  H      -23.911     142.419     179.909
  H      -28.099     139.463     172.730
  H      -23.270     147.064     179.329
  H      -22.798     142.748     174.551
  H      -22.581     142.229     177.983
  H      -25.015     143.637     178.325
  H      -26.054     142.499     176.414
  H      -24.780     139.947     177.552
  H      -24.784     139.257     175.151
  H      -22.245     148.904     175.346
  H      -22.154     147.585     174.175
  H      -26.407     139.467     175.777
  P      -28.272     142.193     177.725
  C      -29.369     139.886     177.462
  O      -29.403     141.119     178.150
  O      -28.388     142.216     176.137
  O      -28.349     143.517     178.415
  H      -28.191     141.350     175.745
  H      -30.160     139.237     177.865
  H      -28.401     139.392     177.608
  H      -29.552     140.043     176.390
  H      -24.508     138.010     171.176
  H      -25.770     139.085     170.622
  H      -26.118     137.884     171.842

 3  4  5  6  7  8  9  10  11  12  22  25  29  30  31  32 0
 6-311+G(2d,p)
 ****
 33  36  37 0
 6-311+G(2d,p)
 ****
 1  2  13  14  15  16  17  18  19  20  21  23  24  26 0
 3-21G
 ****
 27  28  34  35  38  39  40  41  42  43  44  45  46  47  48 0
 3-21G
 ****


