%nproc=1
%NoSave
%Mem=1900MB
#P OB98/GEN NMR

erre ene a

0 1
  C       83.352    -171.897     195.021
  O       82.873    -172.614     193.877
  P       83.285    -172.202     192.382
  C       85.783    -172.809     192.398
  O       84.501    -173.118     191.856
  C       86.941    -173.426     191.599
  O       86.878    -174.881     191.629
  C       86.999    -173.018     190.119
  O       88.382    -173.023     189.761
  C       86.266    -174.170     189.443
  O       86.534    -174.276     188.052
  C       86.782    -175.347     190.270
  N       85.618    -179.539     187.553
  C       86.662    -178.680     187.484
  N       86.924    -177.614     188.265
  C       85.993    -177.481     189.227
  C       84.876    -178.284     189.434
  C       84.694    -179.348     188.528
  N       83.608    -180.195     188.566
  N       84.130    -177.820     190.501
  C       84.781    -176.756     190.931
  N       85.916    -176.512     190.193
  O       83.505    -170.733     192.190
  O       82.046    -172.684     191.482
  H       87.500    -174.364     187.933
  H       81.806    -171.973     190.857
  H       87.381    -178.881     186.690
  H       84.470    -176.116     191.742
  H       87.786    -175.653     189.946
  H       85.183    -174.030     189.566
  H       86.546    -172.048     189.915
  H       87.876    -173.146     192.106
  H       85.819    -173.174     193.436
  H       83.517    -180.871     187.827
  H       82.848    -179.997     189.207
  H       85.899    -171.720     192.424
  P       89.125    -171.698     189.246
  C       89.993    -171.070     191.574
  O       90.349    -171.438     190.252
  O       88.230    -170.522     189.026
  O       89.852    -172.147     187.890
  H       90.067    -171.350     187.357
  H       89.675    -170.022     191.596
  H       90.861    -171.198     192.226
  H       89.179    -171.702     191.952
  H       82.955    -172.339     195.911
  H       83.038    -170.876     194.959
  H       84.421    -171.940     195.047

 3  4  5  6  7  8  9  10  11  12  22  25  29  30  31  32 0
 6-311+G(2d,p)
 ****
 33  36  37 0
 6-311+G(2d,p)
 ****
 1  2  13  14  15  16  17  18  19  20  21  23  24  26 0
 3-21G
 ****
 27  28  34  35  38  39  40  41  42  43  44  45  46  47  48 0
 3-21G
 ****


