%nproc=1
%NoSave
%Mem=1900MB
#P OB98/GEN NMR

erre ene a

0 1
  C       29.132     418.934     193.176
  O       27.793     418.714     193.565
  H       29.721     419.278     194.030
  H       29.555     417.994     192.813
  H       29.176     419.674     192.372
  P       26.998     419.970     194.168
  C       27.541     419.727     196.691
  O       27.791     420.438     195.486
  C       28.654     420.003     197.698
  O       28.715     421.432     197.933
  C       28.478     419.303     199.057
  O       29.608     418.472     199.336
  C       28.454     420.440     200.068
  O       29.175     420.142     201.264
  C       29.081     421.602     199.307
  N       29.670     425.034     203.026
  C       30.500     424.079     202.553
  N       30.326     423.267     201.490
  C       29.161     423.535     200.875
  C       28.225     424.492     201.226
  C       28.507     425.255     202.372
  N       27.636     426.190     202.886
  N       27.148     424.464     200.360
  C       27.410     423.478     199.527
  N       28.607     422.875     199.811
  O       25.659     419.312     194.749
  O       26.700     421.058     193.191
  H       30.097     419.968     200.998
  H       24.886     419.829     194.454
  H       31.425     423.943     203.106
  H       26.757     423.130     198.737
  H       30.176     421.594     199.370
  H       27.413     420.654     200.336
  H       27.558     418.710     199.111
  H       29.609     419.711     197.244
  H       27.510     418.652     196.483
  H       27.867     426.605     203.775
  H       26.723     426.281     202.468
  H       26.570     420.033     197.091
  P       29.511     416.938     198.858
  C       28.904     415.959     201.192
  O       28.494     416.192     199.851
  O       30.936     416.341     199.273
  O       29.236     416.774     197.400
  H       31.167     415.592     198.693
  H       28.122     415.457     201.722
  H       29.114     416.894     201.668
  H       29.784     415.351     201.195

 6  7  8  9  10  11  12  13  14  15  25  28  32  33  34  35 0
 6-311+G(2d,p)
 ****
 36  39  40 0
 6-311+G(2d,p)
 ****
 1  2  3  4  5  16  17  18  19  20  21  22  23  24 0
 3-21G
 ****
 26  27  29  30  31  37  38  41  42  43  44  45  46  47  48 0
 3-21G
 ****


