%nproc=1
%NoSave
%Mem=1900MB
#P OB98/GEN NMR

erre ene a

0 1
  C      -14.249      20.745      30.765
  O      -13.380      20.628      29.654
  P      -12.011      19.813      29.835
  C      -12.370      17.511      28.623
  O      -12.402      18.258      29.824
  C      -11.811      16.109      28.883
  O      -10.423      16.224      29.299
  C      -12.552      15.322      29.972
  O      -12.542      13.944      29.581
  C      -11.679      15.536      31.195
  O      -11.869      14.539      32.185
  C      -10.286      15.533      30.555
  N       -9.264      16.172      31.383
  C       -8.564      15.374      32.283
  O       -8.770      14.172      32.437
  N       -7.619      16.019      33.038
  C       -7.359      17.358      33.032
  O       -6.513      17.885      33.743
  C       -8.163      18.157      32.096
  C       -9.054      17.537      31.322
  O      -11.669      20.119      31.366
  O      -10.949      20.199      28.863
  H      -12.460      20.177      31.928
  H      -12.812      14.533      32.431
  H       -7.074      15.454      33.671
  H       -7.996      19.227      32.072
  H       -9.659      18.104      30.626
  H       -9.982      14.505      30.325
  H      -11.911      16.509      31.642
  H      -13.582      15.663      30.107
  H      -11.822      15.554      27.937
  H      -11.731      18.019      27.896
  H      -13.380      17.457      28.203
  P      -13.946      13.160      29.524
  C      -14.656      13.991      27.146
  O      -14.906      13.971      28.533
  O      -14.534      13.529      30.971
  O      -13.837      11.688      29.302
  H      -14.475      14.476      31.172
  H      -15.570      14.292      26.628
  H      -14.356      13.007      26.780
  H      -13.871      14.719      26.925
  H      -15.112      21.313      30.485
  H      -13.740      21.241      31.565
  H      -14.552      19.770      31.085

 3  4  5  6  7  8  9  10  11  12  13  24  28  29  30  31  32 0
 6-311+G(2d,p)
 ****
 33  34 0
 6-311+G(2d,p)
 ****
 1  2  14  15  16  17  18  19  20  21  22  23  25  26  27 0
 3-21G
 ****
 35  36  37  38  39  40  41  42  43  44  45 0
 3-21G
 ****


