%nproc=1
%NoSave
%Mem=1900MB
#P OB98/GEN NMR

erre ene a

0 1
  C     -235.915     222.416     404.243
  O     -235.572     221.063     404.021
  H     -236.359     222.817     403.329
  H     -235.021     222.999     404.483
  H     -236.643     222.504     405.053
  P     -235.020     220.191     405.248
  C     -232.762     219.889     406.451
  O     -233.451     220.499     405.366
  C     -231.254     219.979     406.227
  O     -230.885     219.295     405.008
  C     -230.735     221.406     406.074
  O     -230.678     222.058     407.328
  C     -229.387     221.145     405.416
  O     -228.412     220.732     406.385
  C     -229.731     219.972     404.462
  N     -229.982     220.416     403.086
  C     -228.879     220.418     402.235
  O     -227.751     220.082     402.590
  N     -229.113     220.870     400.962
  C     -230.290     221.391     400.506
  O     -230.392     221.981     399.433
  C     -231.432     221.291     401.423
  C     -231.229     220.827     402.658
  O     -235.382     218.745     405.229
  O     -235.625     220.932     406.534
  H     -236.402     220.436     406.855
  H     -227.612     220.486     405.887
  H     -228.312     220.923     400.352
  H     -232.399     221.635     401.073
  H     -232.051     220.774     403.363
  H     -228.913     219.242     404.442
  H     -228.991     222.029     404.915
  H     -231.369     221.964     405.371
  H     -230.750     219.471     407.061
  H     -233.058     218.837     406.507
  H     -233.046     220.390     407.382
  P     -231.028     223.614     407.466
  C     -229.771     225.847     407.535
  O     -229.651     224.432     407.520
  O     -231.989     223.950     408.558
  O     -231.629     224.013     406.034
  H     -232.501     224.438     406.158
  H     -228.796     226.287     407.571
  H     -230.331     226.148     408.396
  H     -230.276     226.172     406.649

 6  7  8  9  10  11  12  13  14  15  16  27  31  32  33  34  35 0
 6-311+G(2d,p)
 ****
 36  37 0
 6-311+G(2d,p)
 ****
 1  2  3  4  5  17  18  19  20  21  22  23  24  25 0
 3-21G
 ****
 26  28  29  30  38  39  40  41  42  43  44  45 0
 3-21G
 ****


