%nproc=1
%NoSave
%Mem=1900MB
#P OB98/GEN NMR

erre ene a

0 1
  C      174.728     236.175    -169.662
  O      175.653     236.363    -170.719
  P      175.103     236.978    -172.096
  C      174.680     235.388    -174.116
  O      174.278     235.806    -172.818
  C      175.913     234.488    -174.021
  O      175.791     233.572    -172.907
  C      176.131     233.601    -175.243
  O      176.766     234.299    -176.303
  C      177.060     232.540    -174.675
  O      178.410     233.045    -174.621
  C      176.504     232.356    -173.253
  N      176.211     227.402    -172.271
  C      177.269     228.274    -172.098
  N      178.429     227.742    -171.659
  N      177.196     229.561    -172.331
  C      175.976     229.954    -172.783
  C      174.853     229.182    -172.991
  C      174.956     227.759    -172.740
  O      174.072     226.925    -172.927
  N      173.806     229.935    -173.440
  C      174.280     231.165    -173.501
  N      175.607     231.217    -173.154
  O      176.424     237.102    -172.997
  O      174.392     238.280    -171.957
  H      178.683     233.207    -175.548
  H      176.258     237.706    -173.747
  H      176.328     226.417    -172.081
  H      173.715     232.036    -173.803
  H      177.303     232.232    -172.515
  H      177.083     231.628    -175.275
  H      178.571     226.753    -171.511
  H      175.196     233.129    -175.572
  H      179.236     228.347    -171.577
  H      176.788     235.123    -173.841
  H      174.920     236.264    -174.718
  H      173.856     234.852    -174.594
  P      176.840     233.549    -177.722
  C      179.312     232.870    -178.166
  O      178.064     232.519    -177.593
  O      177.391     234.682    -178.705
  O      175.541     232.971    -178.182
  H      177.103     234.511    -179.622
  H      180.081     232.202    -177.766
  H      179.582     233.899    -177.922
  H      179.269     232.746    -179.255
  H      175.234     235.761    -168.815
  H      173.956     235.505    -169.979
  H      174.296     237.117    -169.395

 3  4  5  6  7  8  9  10  11  12  23  26  30  31 0
 6-311+G(2d,p)
 ****
 33  35  36  37  38 0
 6-311+G(2d,p)
 ****
 1  2  13  14  15  16  17  18  19  20  21  22  24  25 0
 3-21G
 ****
 27  28  29  32  34  39  40  41  42  43  44  45  46  47  48  49 0
 3-21G
 ****


