%nproc=1
%NoSave
%Mem=1900MB
#P OB98/GEN NMR

erre ene a

0 1
  C      -36.188    -827.457     116.655
  O      -36.819    -826.287     116.162
  H      -36.155    -828.200     115.854
  H      -36.771    -827.879     117.483
  H      -35.176    -827.230     116.985
  P      -37.013    -825.089     117.206
  C      -37.694    -823.591     115.191
  O      -38.019    -824.043     116.509
  C      -38.731    -822.571     114.722
  O      -39.084    -821.677     115.799
  C      -38.271    -821.702     113.571
  O      -38.428    -822.342     112.314
  C      -39.181    -820.484     113.717
  O      -40.479    -820.741     113.149
  C      -39.270    -820.341     115.242
  N      -38.024    -815.465     115.779
  C      -39.121    -816.041     115.191
  N      -39.996    -815.202     114.600
  N      -39.347    -817.337     115.155
  C      -38.357    -818.070     115.760
  C      -37.233    -817.611     116.382
  C      -37.012    -816.169     116.441
  O      -36.079    -815.594     117.011
  N      -36.480    -818.646     116.885
  C      -37.160    -819.729     116.509
  N      -38.293    -819.416     115.810
  O      -35.602    -824.327     117.158
  O      -37.371    -825.491     118.604
  H      -41.038    -819.936     113.250
  H      -35.426    -823.917     118.035
  H      -37.907    -814.472     115.784
  H      -36.846    -820.745     116.752
  H      -40.252    -819.983     115.570
  H      -38.765    -819.613     113.203
  H      -39.727    -814.281     114.296
  H      -37.204    -821.390     113.702
  H      -40.806    -815.630     114.139
  H      -39.642    -823.127     114.450
  H      -37.698    -824.447     114.501
  H      -36.708    -823.146     115.205
  P      -37.692    -821.727     111.051
  C      -37.146    -824.175     110.338
  O      -37.610    -822.898     109.941
  O      -36.176    -821.564     111.516
  O      -38.271    -820.435     110.558
  H      -35.688    -820.950     110.923
  H      -37.151    -824.834     109.495
  H      -37.787    -824.566     111.100
  H      -36.150    -824.090     110.719

 6  7  8  9  10  11  12  13  14  15  26  29  33  34 0
 6-311+G(2d,p)
 ****
 36  38  39  40  41 0
 6-311+G(2d,p)
 ****
 1  2  3  4  5  16  17  18  19  20  21  22  23  24  25 0
 3-21G
 ****
 27  28  30  31  32  35  37  42  43  44  45  46  47 0
 3-21G
 ****
 48  49 0
 3-21G
 ****


