%nproc=1
%NoSave
%Mem=1900MB
#P OB98/GEN NMR

erre ene a

0 1
  C     -320.358    -547.203      22.486
  O     -321.669    -547.278      21.930
  P     -322.058    -548.562      21.048
  C     -323.533    -550.102      22.621
  O     -322.295    -549.817      22.006
  C     -324.219    -551.257      21.881
  O     -323.405    -552.450      21.959
  C     -325.595    -551.610      22.441
  O     -326.619    -550.823      21.874
  C     -325.703    -553.082      22.093
  O     -326.046    -553.248      20.700
  C     -324.254    -553.569      22.356
  N     -323.890    -553.968      23.730
  C     -324.022    -555.299      24.125
  O     -324.441    -556.198      23.401
  N     -323.645    -555.583      25.412
  C     -323.000    -554.740      26.280
  O     -322.639    -555.069      27.396
  C     -322.753    -553.392      25.757
  C     -323.209    -553.065      24.543
  O     -320.708    -548.918      20.278
  O     -323.203    -548.340      20.102
  H     -326.980    -552.971      20.601
  H     -320.824    -548.801      19.317
  H     -323.809    -556.528      25.736
  H     -322.206    -552.704      26.388
  H     -323.021    -552.071      24.153
  H     -324.008    -554.415      21.703
  H     -326.503    -553.568      22.659
  H     -325.586    -551.524      23.531
  H     -324.311    -550.981      20.812
  H     -324.187    -549.222      22.618
  H     -323.370    -550.367      23.669
  P     -327.811    -550.281      22.804
  C     -326.499    -548.264      23.704
  O     -327.096    -549.503      24.017
  O     -328.845    -551.281      23.191
  O     -328.434    -549.073      21.944
  H     -329.220    -549.378      21.432
  H     -326.197    -547.769      24.637
  H     -327.213    -547.616      23.176
  H     -325.614    -548.422      23.083
  H     -320.258    -546.294      23.042
  H     -319.635    -547.221      21.698
  H     -320.198    -548.038      23.136

 3  4  5  6  7  8  9  10  11  12  13  23  28  29  30  31  32 0
 6-311+G(2d,p)
 ****
 33  34 0
 6-311+G(2d,p)
 ****
 1  2  14  15  16  17  18  19  20  21  22  24  25  26  27 0
 3-21G
 ****
 35  36  37  38  39  40  41  42  43  44  45 0
 3-21G
 ****


