%nproc=1
%NoSave
%Mem=1900MB
#P OB98/GEN NMR

erre ene a

0 1
  C     -899.276    -411.085    -856.234
  O     -897.976    -411.274    -855.706
  P     -897.556    -412.670    -855.060
  C     -895.856    -413.348    -856.858
  O     -897.106    -413.651    -856.253
  C     -895.136    -414.620    -857.298
  O     -894.896    -415.457    -856.129
  C     -895.896    -415.481    -858.317
  O     -894.906    -416.087    -859.165
  C     -896.536    -416.551    -857.455
  O     -896.906    -417.712    -858.186
  C     -895.436    -416.769    -856.416
  N     -895.006    -420.790    -853.305
  C     -894.406    -420.499    -854.484
  N     -894.606    -419.420    -855.262
  C     -895.496    -418.586    -854.721
  C     -896.206    -418.763    -853.539
  C     -895.926    -419.921    -852.800
  N     -896.496    -420.227    -851.586
  N     -897.086    -417.717    -853.349
  C     -896.906    -416.920    -854.377
  N     -895.926    -417.370    -855.209
  O     -898.546    -413.252    -854.110
  O     -896.166    -412.348    -854.317
  H     -897.216    -418.391    -857.556
  H     -896.306    -412.319    -853.353
  H     -893.686    -421.227    -854.841
  H     -897.466    -416.025    -854.585
  H     -894.616    -417.385    -856.810
  H     -897.446    -416.142    -856.986
  H     -896.626    -414.915    -858.915
  H     -894.156    -414.336    -857.695
  H     -895.256    -412.810    -856.130
  H     -896.106    -421.012    -851.078
  H     -896.966    -419.483    -851.064
  H     -896.016    -412.689    -857.717
  P     -895.216    -416.294    -860.730
  C     -893.486    -414.707    -861.755
  O     -894.866    -414.918    -861.448
  O     -896.576    -416.853    -861.037
  O     -894.046    -417.278    -861.213
  H     -894.306    -417.691    -862.053
  H     -892.976    -414.365    -860.853
  H     -893.416    -413.945    -862.528
  H     -893.016    -415.628    -862.113
  H     -899.363    -410.091    -856.619
  H     -900.000    -411.233    -855.460
  H     -899.447    -411.789    -857.022

 3  4  5  6  7  8  9  10  11  12  22  25  29  30  31  32 0
 6-311+G(2d,p)
 ****
 33  36  37 0
 6-311+G(2d,p)
 ****
 1  2  13  14  15  16  17  18  19  20  21  23  24  26 0
 3-21G
 ****
 27  28  34  35  38  39  40  41  42  43  44  45  46  47  48 0
 3-21G
 ****


