%nproc=1
%NoSave
%Mem=1900MB
#P OB98/GEN NMR

erre ene a

0 1
  C     -100.981     258.708    -500.249
  O     -100.560     259.832    -500.996
  H     -101.783     258.194    -500.777
  H     -100.127     258.027    -500.135
  H     -101.317     259.013    -499.252
  P     -101.604     261.047    -501.125
  C     -103.542     261.616    -502.773
  O     -102.502     260.710    -502.416
  C     -103.628     261.772    -504.291
  O     -102.406     262.431    -504.755
  C     -103.747     260.439    -505.046
  O     -104.641     260.617    -506.146
  C     -102.341     260.180    -505.547
  O     -102.326     259.346    -506.699
  C     -101.837     261.595    -505.792
  N      -97.667     262.385    -508.636
  C      -98.985     262.463    -508.917
  N     -100.041     262.244    -508.109
  C      -99.607     261.965    -506.870
  C      -98.307     261.839    -506.421
  C      -97.295     262.050    -507.373
  N      -95.950     261.927    -507.101
  N      -98.277     261.498    -505.072
  C      -99.542     261.410    -504.721
  N     -100.386     261.680    -505.759
  O     -100.669     262.252    -501.621
  O     -102.356     261.391    -499.880
  H     -102.873     259.760    -507.401
  H     -100.190     262.628    -500.860
  H      -99.228     262.740    -509.943
  H      -99.892     261.149    -503.726
  H     -102.166     262.001    -506.763
  H     -101.746     259.691    -504.757
  H     -104.119     259.630    -504.404
  H     -104.460     262.443    -504.531
  H     -103.348     262.597    -502.306
  H      -95.299     262.056    -507.861
  H      -95.656     261.630    -506.186
  H     -104.497     261.223    -502.388
  P     -106.032     259.795    -506.099
  C     -107.135     257.880    -507.414
  O     -105.943     258.577    -507.139
  O     -107.082     260.809    -506.776
  O     -106.443     259.434    -504.709
  H     -107.866     260.906    -506.207
  H     -106.937     257.099    -508.118
  H     -107.856     258.555    -507.825
  H     -107.517     257.457    -506.509

 6  7  8  9  10  11  12  13  14  15  25  28  32  33  34  35 0
 6-311+G(2d,p)
 ****
 36  39  40 0
 6-311+G(2d,p)
 ****
 1  2  3  4  5  16  17  18  19  20  21  22  23  24 0
 3-21G
 ****
 26  27  29  30  31  37  38  41  42  43  44  45  46  47 0
 3-21G
 ****
 48 0
 3-21G
 ****


