%nproc=1
%NoSave
%Mem=1900MB
#P OB98/GEN NMR

erre ene a

0 1
  C     -516.336    -145.859    -252.951
  O     -517.301    -146.751    -252.425
  H     -516.608    -144.842    -252.669
  H     -516.323    -145.929    -254.041
  H     -515.341    -146.077    -252.550
  P     -516.993    -148.323    -252.441
  C     -517.129    -148.583    -249.881
  O     -516.307    -148.662    -251.027
  C     -516.282    -148.432    -248.604
  O     -515.430    -147.262    -248.748
  C     -517.110    -148.241    -247.321
  O     -516.372    -148.817    -246.243
  C     -517.138    -146.728    -247.196
  O     -517.497    -146.316    -245.896
  C     -515.714    -146.382    -247.649
  N     -515.574    -144.973    -248.025
  C     -514.374    -144.354    -247.673
  O     -513.485    -144.922    -247.041
  N     -514.253    -143.024    -248.010
  C     -515.221    -142.274    -248.611
  O     -515.070    -141.085    -248.869
  C     -516.477    -142.967    -248.924
  C     -516.593    -144.271    -248.625
  O     -516.256    -148.829    -253.638
  O     -518.437    -149.007    -252.296
  H     -517.388    -145.347    -245.807
  H     -518.440    -149.880    -252.755
  H     -513.399    -142.567    -247.770
  H     -517.269    -142.393    -249.394
  H     -517.508    -144.809    -248.847
  H     -514.998    -146.589    -246.852
  H     -517.875    -146.291    -247.889
  H     -518.108    -148.676    -247.383
  H     -515.629    -149.300    -248.520
  H     -517.723    -149.502    -249.819
  H     -517.814    -147.730    -249.966
  P     -516.664    -150.301    -245.698
  C     -514.759    -151.252    -247.140
  O     -516.135    -151.359    -246.780
  O     -518.082    -150.529    -245.266
  O     -515.658    -150.488    -244.466
  H     -516.034    -151.122    -243.831
  H     -514.520    -152.003    -247.863
  H     -514.151    -151.388    -246.270
  H     -514.574    -150.284    -247.557

 6  7  8  9  10  11  12  13  14  15  16  26  31  32  33  34  35 0
 6-311+G(2d,p)
 ****
 36  37 0
 6-311+G(2d,p)
 ****
 1  2  3  4  5  17  18  19  20  21  22  23  24  25 0
 3-21G
 ****
 27  28  29  30  38  39  40  41  42  43  44  45 0
 3-21G
 ****


