%nproc=1
%NoSave
%Mem=1900MB
#P OB98/GEN NMR

erre ene a

0 1
  C      152.724     108.960     284.112
  O      154.003     109.563     284.290
  P      155.008     109.554     283.041
  C      156.922     107.955     282.227
  O      155.790     108.155     283.053
  C      157.461     106.520     282.367
  O      157.836     106.305     283.751
  C      156.464     105.413     282.041
  O      157.187     104.204     281.798
  C      155.700     105.293     283.342
  O      154.997     104.057     283.426
  C      156.809     105.507     284.397
  N      156.336     106.184     285.624
  C      155.957     105.398     286.709
  O      155.989     104.169     286.713
  N      155.491     106.071     287.807
  C      155.407     107.425     287.939
  O      154.900     107.973     288.910
  C      155.950     108.207     286.821
  C      156.370     107.565     285.732
  O      156.118     110.631     283.445
  O      154.351     109.882     281.743
  H      154.205     104.146     282.846
  H      155.994     111.450     282.934
  H      155.149     105.513     288.576
  H      155.962     109.286     286.918
  H      156.756     108.130     284.886
  H      157.252     104.550     284.705
  H      154.959     106.095     283.410
  H      155.804     105.629     281.196
  H      158.368     106.416     281.759
  H      157.698     108.680     282.481
  H      156.649     108.140     281.180
  P      157.331     103.706     280.281
  C      156.345     101.736     278.958
  O      156.175     102.618     280.050
  O      158.699     103.295     279.855
  O      156.798     104.965     279.440
  H      157.112     104.899     278.520
  H      155.849     100.790     279.191
  H      157.402     101.543     278.756
  H      155.880     102.171     278.070
  H      152.163     109.038     285.020
  H      152.848     107.928     283.858
  H      152.200     109.461     283.325

 3  4  5  6  7  8  9  10  11  12  13  23  28  29  30  31  32 0
 6-311+G(2d,p)
 ****
 33  34 0
 6-311+G(2d,p)
 ****
 1  2  14  15  16  17  18  19  20  21  22  24  25  26  27 0
 3-21G
 ****
 35  36  37  38  39  40  41  42  43  44  45 0
 3-21G
 ****


