%nproc=1
%NoSave
%Mem=1900MB
#P OB98/GEN NMR

erre ene a

0 1
  C     -181.980      94.949     102.821
  O     -181.607      93.732     102.196
  P     -180.573      92.776     102.971
  C     -177.969      92.683     102.994
  O     -179.135      93.481     102.873
  C     -176.723      93.491     102.623
  O     -176.708      94.707     103.417
  C     -175.392      92.773     102.869
  O     -174.477      93.231     101.866
  C     -174.963      93.299     104.228
  O     -173.565      93.160     104.456
  C     -175.456      94.740     104.140
  N     -175.893      99.046     106.756
  C     -175.579      98.848     105.423
  N     -175.420      99.960     104.673
  N     -175.439      97.669     104.875
  C     -175.644      96.653     105.746
  C     -175.921      96.720     107.092
  C     -176.110      98.029     107.675
  O     -176.473      98.249     108.828
  N     -175.971      95.474     107.660
  C     -175.808      94.652     106.642
  N     -175.653      95.316     105.455
  O     -180.447      91.520     101.991
  O     -180.967      92.384     104.360
  H     -173.343      93.654     105.272
  H     -181.068      90.811     102.246
  H     -176.006      99.978     107.115
  H     -175.799      93.576     106.701
  H     -174.762      95.390     103.593
  H     -175.489      92.749     105.019
  H     -175.544     100.897     105.023
  H     -175.471      91.683     102.845
  H     -175.224      99.841     103.687
  H     -176.807      93.792     101.572
  H     -178.047      91.834     102.309
  H     -177.891      92.297     104.016
  P     -173.387      92.191     101.314
  C     -171.372      90.949     102.367
  O     -172.230      92.073     102.413
  O     -172.684      93.010     100.127
  O     -173.950      90.904     100.807
  H     -172.403      92.394      99.429
  H     -170.440      91.198     102.880
  H     -171.140      90.663     101.337
  H     -171.846      90.108     102.879
  H     -182.668      95.476     102.193
  H     -181.109      95.550     102.980
  H     -182.445      94.739     103.762

 3  4  5  6  7  8  9  10  11  12  23  26  30  31 0
 6-311+G(2d,p)
 ****
 33  35  36  37  38 0
 6-311+G(2d,p)
 ****
 1  2  13  14  15  16  17  18  19  20  21  22  24  25 0
 3-21G
 ****
 27  28  29  32  34  39  40  41  42  43  44  45  46  47  48  49 0
 3-21G
 ****


