%nproc=1
%NoSave
%Mem=1900MB
#P OB98/GEN NMR

erre ene a

0 1
  C       55.570      61.820     -18.467
  O       56.150      63.016     -18.947
  P       57.405      63.664     -18.195
  C       56.901      66.183     -18.151
  O       57.637      65.139     -18.779
  C       57.322      67.542     -18.705
  O       58.731      67.774     -18.478
  C       57.136      67.683     -20.207
  O       55.773      67.821     -20.563
  C       58.003      68.903     -20.494
  O       57.302      70.114     -20.176
  C       59.175      68.687     -19.513
  N       60.372      68.195     -20.176
  C       61.226      69.169     -20.705
  O       60.913      70.359     -20.668
  N       62.410      68.764     -21.270
  C       62.658      67.500     -21.409
  N       63.871      67.160     -21.920
  C       61.707      66.442     -21.011
  C       60.606      66.856     -20.387
  O       58.629      62.811     -18.147
  O       56.862      63.954     -16.715
  H       57.497      63.588     -16.070
  H       57.962      70.835     -20.217
  H       61.932      65.405     -21.211
  H       59.861      66.148     -20.039
  H       59.416      69.624     -18.999
  H       58.298      68.966     -21.546
  H       57.559      66.808     -20.715
  H       56.755      68.317     -18.172
  H       64.504      67.911     -22.164
  H       57.093      66.148     -17.075
  H       64.288      66.244     -21.772
  H       55.830      66.016     -18.313
  P       55.046      66.524     -21.165
  C       54.289      68.166     -23.018
  O       53.973      67.029     -22.239
  O       54.148      66.005     -19.944
  O       55.975      65.457     -21.646
  H       54.126      65.030     -19.944
  H       53.651      68.170     -23.905
  H       55.335      68.155     -23.335
  H       54.091      69.071     -22.438
  H       54.749      61.544     -19.096
  H       55.219      61.970     -17.467
  H       56.303      61.040     -18.475

 3  4  5  6  7  8  9  10  11  12  13  24  27  28  29  30  32 0
 6-311+G(2d,p)
 ****
 34  35 0
 6-311+G(2d,p)
 ****
 1  2  14  15  16  17  18  19  20  21  22  23  25  26 0
 3-21G
 ****
 31  33  36  37  38  39  40  41  42  43  44  45  46 0
 3-21G
 ****


