%nproc=1
%NoSave
%Mem=1900MB
#P OB98/GEN NMR

erre ene a

0 1
  C     -476.966     149.522    -160.962
  O     -476.008     149.827    -161.952
  H     -477.252     150.444    -160.451
  H     -476.541     148.832    -160.229
  H     -477.858     149.075    -161.413
  P     -475.605     148.643    -162.957
  C     -474.852     150.435    -164.677
  O     -474.515     149.252    -163.967
  C     -473.605     151.024    -165.342
  O     -472.841     149.977    -165.985
  C     -473.906     152.058    -166.424
  O     -474.151     153.349    -165.875
  C     -472.599     152.029    -167.206
  O     -471.592     152.767    -166.487
  C     -472.262     150.527    -167.197
  N     -472.662     150.480    -172.249
  C     -472.065     151.408    -171.416
  N     -471.500     152.484    -172.008
  N     -472.033     151.300    -170.113
  C     -472.647     150.178    -169.655
  C     -473.268     149.190    -170.387
  C     -473.296     149.319    -171.824
  O     -473.786     148.520    -172.606
  N     -473.763     148.210    -169.573
  C     -473.461     148.611    -168.348
  N     -472.789     149.807    -168.348
  O     -476.907     148.482    -163.880
  O     -475.236     147.350    -162.313
  H     -471.923     153.683    -166.388
  H     -477.022     147.534    -164.097
  H     -472.677     150.624    -173.247
  H     -473.705     148.076    -167.438
  H     -471.187     150.344    -167.171
  H     -472.692     152.484    -168.191
  H     -471.542     152.654    -173.003
  H     -474.724     151.731    -167.080
  H     -471.029     153.158    -171.421
  H     -472.980     151.455    -164.554
  H     -475.266     151.170    -163.977
  H     -475.608     150.191    -165.438
  P     -475.589     154.004    -166.127
  C     -475.129     155.029    -163.792
  O     -475.707     155.208    -165.072
  O     -476.597     152.904    -165.549
  O     -475.888     154.346    -167.553
  H     -477.479     153.008    -165.962
  H     -475.286     155.909    -163.203
  H     -474.079     154.853    -163.896
  H     -475.585     154.190    -163.309

 6  7  8  9  10  11  12  13  14  15  26  29  33  34 0
 6-311+G(2d,p)
 ****
 36  38  39  40  41 0
 6-311+G(2d,p)
 ****
 1  2  3  4  5  16  17  18  19  20  21  22  23  24  25 0
 3-21G
 ****
 27  28  30  31  32  35  37  42  43  44  45  46  47 0
 3-21G
 ****
 48  49 0
 3-21G
 ****


