%nproc=1
%NoSave
%Mem=1900MB
#P OB98/GEN NMR

erre ene a

0 1
  C      427.634     195.016     634.646
  O      429.029     194.841     634.886
  P      430.071     195.340     633.768
  C      430.232     197.826     633.106
  O      430.486     196.850     634.119
  C      430.227     199.237     633.705
  O      429.191     199.387     634.700
  C      431.527     199.589     634.416
  O      432.552     199.857     633.479
  C      431.085     200.780     635.257
  O      431.084     201.988     634.480
  C      429.638     200.391     635.637
  N      429.513     199.940     637.014
  C      429.470     200.942     637.993
  O      429.573     202.123     637.673
  N      429.316     200.563     639.308
  C      429.227     199.309     639.616
  N      429.079     198.997     640.931
  C      429.280     198.220     638.617
  C      429.438     198.603     637.357
  O      429.670     195.095     632.355
  O      431.407     194.516     634.141
  H      431.980     202.367     634.556
  H      431.915     194.371     633.321
  H      429.202     197.182     638.923
  H      429.490     197.868     636.555
  H      428.971     201.255     635.513
  H      431.755     200.950     636.104
  H      431.826     198.768     635.070
  H      430.034     199.948     632.890
  H      429.052     199.759     641.595
  H      429.262     197.617     632.636
  H      428.947     198.056     641.267
  H      430.995     197.730     632.323
  P      433.857     198.923     633.514
  C      434.314     196.455     632.854
  O      433.545     197.632     632.621
  O      433.845     198.349     635.017
  O      435.144     199.623     633.209
  H      434.760     198.232     635.323
  H      433.783     195.608     632.413
  H      434.449     196.268     633.922
  H      435.280     196.549     632.364
  H      427.079     194.636     635.478
  H      427.356     194.486     633.759
  H      427.421     196.057     634.521

 3  4  5  6  7  8  9  10  11  12  13  23  27  28  29  30  32 0
 6-311+G(2d,p)
 ****
 34  35 0
 6-311+G(2d,p)
 ****
 1  2  14  15  16  17  18  19  20  21  22  24  25  26 0
 3-21G
 ****
 31  33  36  37  38  39  40  41  42  43  44  45  46 0
 3-21G
 ****


