%nproc=1
%NoSave
%Mem=1900MB
#P OB98/GEN NMR

erre ene a

0 1
  C      408.677      90.910     221.152
  O      407.457      90.517     221.764
  P      407.382      90.538     223.371
  C      408.103      88.043     223.365
  O      408.351      89.358     223.863
  C      409.210      87.084     223.812
  O      410.494      87.580     223.389
  C      409.314      86.901     225.320
  O      408.368      85.965     225.814
  C      410.725      86.353     225.448
  O      410.740      84.951     225.120
  C      411.477      87.159     224.374
  N      415.879      88.884     226.325
  C      415.486      87.652     225.955
  N      414.289      87.270     225.450
  C      413.444      88.311     225.386
  C      413.701      89.626     225.761
  C      414.989      89.904     226.244
  N      415.403      91.171     226.597
  N      412.585      90.410     225.547
  C      411.691      89.600     225.042
  N      412.157      88.319     224.912
  O      405.913      89.970     223.676
  O      407.606      91.879     223.993
  H      411.644      84.625     225.309
  H      405.621      90.267     224.555
  H      416.227      86.860     226.067
  H      410.685      89.887     224.746
  H      412.224      86.549     223.846
  H      411.138      86.451     226.455
  H      409.247      87.867     225.849
  H      409.038      86.116     223.320
  H      408.077      88.065     222.272
  H      416.387      91.319     226.753
  H      414.807      91.952     226.340
  H      407.127      87.696     223.736
  P      407.669      86.316     227.224
  C      409.667      85.145     228.394
  O      408.846      86.295     228.305
  O      406.818      84.994     227.537
  O      406.825      87.546     227.188
  H      406.066      85.207     228.115
  H      410.582      85.397     228.940
  H      409.943      84.765     227.409
  H      409.138      84.357     228.953
  H      408.579      90.846     220.088
  H      409.464      90.262     221.477
  H      408.907      91.918     221.429

 3  4  5  6  7  8  9  10  11  12  22  25  29  30  31  32 0
 6-311+G(2d,p)
 ****
 33  36  37 0
 6-311+G(2d,p)
 ****
 1  2  13  14  15  16  17  18  19  20  21  23  24  26 0
 3-21G
 ****
 27  28  34  35  38  39  40  41  42  43  44  45  46  47  48 0
 3-21G
 ****


