%nproc=1
%NoSave
%Mem=1900MB
#P OB98/GEN NMR

erre ene a

0 1
  C      197.596    -109.423     190.924
  O      197.548    -110.305     189.818
  P      198.895    -110.661     189.025
  C      197.518    -111.291     186.932
  O      198.520    -111.705     187.866
  C      197.186    -112.424     185.970
  O      198.336    -112.763     185.165
  C      196.776    -113.721     186.664
  O      195.450    -113.632     187.152
  C      196.976    -114.738     185.547
  O      195.854    -114.743     184.653
  C      198.227    -114.178     184.833
  N      202.757    -115.755     183.125
  C      201.685    -115.237     182.486
  N      200.496    -114.875     183.011
  C      200.469    -115.127     184.331
  C      201.471    -115.685     185.114
  C      202.677    -115.991     184.465
  N      203.804    -116.466     185.109
  N      201.043    -115.807     186.428
  C      199.817    -115.342     186.431
  N      199.445    -114.857     185.199
  O      200.058    -111.042     189.875
  O      199.216    -109.320     188.206
  H      195.059    -114.969     185.172
  H      200.092    -108.972     188.478
  H      201.811    -115.075     181.423
  H      199.160    -115.323     187.291
  H      198.132    -114.230     183.743
  H      197.110    -115.751     185.919
  H      197.467    -113.945     187.484
  H      196.393    -112.075     185.296
  H      197.926    -110.434     186.372
  H      204.655    -116.503     184.573
  H      203.853    -116.347     186.115
  H      196.627    -110.973     187.479
  P      195.135    -113.956     188.687
  C      193.011    -115.391     188.895
  O      193.533    -114.082     188.818
  O      195.782    -113.058     189.683
  O      195.623    -115.478     188.852
  H      195.945    -115.605     189.769
  H      192.999    -115.834     187.893
  H      191.999    -115.350     189.275
  H      193.617    -116.021     189.556
  H      196.612    -109.302     191.327
  H      197.971    -108.472     190.606
  H      198.242    -109.828     191.675

 3  4  5  6  7  8  9  10  11  12  22  25  29  30  31  32 0
 6-311+G(2d,p)
 ****
 33  36  37 0
 6-311+G(2d,p)
 ****
 1  2  13  14  15  16  17  18  19  20  21  23  24  26 0
 3-21G
 ****
 27  28  34  35  38  39  40  41  42  43  44  45  46  47  48 0
 3-21G
 ****


