%nproc=1
%NoSave
%Mem=1900MB
#P OB98/GEN NMR

erre ene a

0 1
  C      129.656     -63.610    -280.815
  O      131.024     -63.332    -280.590
  H      129.571     -64.269    -281.682
  H      129.122     -62.678    -281.028
  H      129.211     -64.107    -279.947
  P      131.404     -62.657    -279.181
  C      131.227     -60.356    -280.372
  O      130.872     -61.143    -279.245
  C      131.639     -58.957    -279.936
  O      130.535     -58.280    -279.290
  C      132.802     -58.924    -278.943
  O      134.058     -59.011    -279.603
  C      132.604     -57.554    -278.321
  O      133.081     -56.535    -279.231
  C      131.074     -57.471    -278.208
  N      128.430     -56.232    -274.060
  C      128.837     -55.443    -275.117
  N      128.502     -54.135    -275.059
  N      129.518     -55.890    -276.144
  C      129.807     -57.212    -276.051
  C      129.459     -58.095    -275.056
  C      128.698     -57.590    -273.935
  O      128.301     -58.250    -272.979
  N      129.931     -59.360    -275.308
  C      130.574     -59.233    -276.453
  N      130.533     -57.949    -276.945
  O      132.999     -62.509    -279.282
  O      131.006     -63.441    -277.972
  H      134.005     -56.758    -279.449
  H      133.415     -63.215    -278.754
  H      127.918     -55.830    -273.292
  H      131.080     -60.036    -276.973
  H      130.697     -56.447    -278.346
  H      133.155     -57.426    -277.388
  H      127.999     -53.720    -274.289
  H      132.695     -59.697    -278.168
  H      128.790     -53.539    -275.824
  H      131.889     -58.380    -280.838
  H      130.363     -60.288    -281.049
  H      132.054     -60.842    -280.903
  P      135.355     -59.355    -278.725
  C      135.960     -56.870    -278.306
  O      135.594     -58.119    -277.733
  O      136.544     -59.221    -279.789
  O      135.350     -60.706    -278.088
  H      136.928     -60.103    -279.973
  H      136.085     -56.144    -277.530
  H      135.191     -56.546    -278.976
  H      136.879     -56.980    -278.843

 6  7  8  9  10  11  12  13  14  15  26  29  33  34 0
 6-311+G(2d,p)
 ****
 36  38  39  40  41 0
 6-311+G(2d,p)
 ****
 1  2  3  4  5  16  17  18  19  20  21  22  23  24  25 0
 3-21G
 ****
 27  28  30  31  32  35  37  42  43  44  45  46  47 0
 3-21G
 ****
 48  49 0
 3-21G
 ****


