%nproc=1
%NoSave
%Mem=1900MB
#P OB98/GEN NMR

erre ene a

0 1
  C       44.560     -56.336     186.443
  O       44.561     -57.696     186.831
  H       45.300     -55.778     187.023
  H       44.821     -56.273     185.384
  H       43.566     -55.900     186.588
  P       44.169     -58.007     188.355
  C       42.090     -57.501     189.824
  O       42.815     -57.194     188.642
  C       41.138     -56.360     190.167
  O       41.884     -55.185     190.537
  C       40.226     -55.924     189.025
  O       39.112     -56.793     188.880
  C       39.800     -54.549     189.512
  O       38.764     -54.682     190.503
  C       41.088     -54.027     190.166
  N       41.125     -49.673     187.481
  C       40.213     -50.209     188.318
  N       40.281     -51.363     189.013
  C       41.455     -51.977     188.791
  C       42.493     -51.545     187.984
  C       42.297     -50.334     187.300
  N       43.214     -49.830     186.391
  N       43.533     -52.455     187.996
  C       43.120     -53.426     188.782
  N       41.874     -53.179     189.291
  O       45.282     -57.199     189.179
  O       44.147     -59.452     188.724
  H       38.679     -53.814     190.940
  H       45.998     -57.811     189.434
  H       39.299     -49.637     188.444
  H       43.681     -54.322     189.006
  H       40.888     -53.466     191.084
  H       39.405     -53.914     188.715
  H       40.780     -55.817     188.087
  H       40.548     -56.666     191.042
  H       42.790     -57.651     190.654
  H       42.791     -49.268     185.658
  H       43.927     -50.491     186.106
  H       41.530     -58.427     189.660
  P       38.360     -56.809     187.464
  C       39.081     -57.414     185.054
  O       39.497     -56.986     186.344
  O       37.889     -55.288     187.293
  O       37.204     -57.744     187.367
  H       36.922     -55.255     187.155
  H       39.933     -57.490     184.411
  H       38.390     -56.705     184.648
  H       38.607     -58.370     185.131

 6  7  8  9  10  11  12  13  14  15  25  28  32  33  34  35 0
 6-311+G(2d,p)
 ****
 36  39  40 0
 6-311+G(2d,p)
 ****
 1  2  3  4  5  16  17  18  19  20  21  22  23  24 0
 3-21G
 ****
 26  27  29  30  31  37  38  41  42  43  44  45  46  47  48 0
 3-21G
 ****


