%nproc=1
%NoSave
%Mem=1900MB
#P OB98/GEN NMR

erre ene a

0 1
  C       92.592      26.130      51.863
  O       91.884      27.233      51.323
  P       90.710      26.914      50.276
  C       92.395      27.350      48.341
  O       91.443      26.465      48.922
  C       92.915      26.782      47.025
  O       93.601      25.540      47.258
  C       91.825      26.464      46.016
  O       91.365      27.647      45.389
  C       92.553      25.509      45.076
  O       93.267      26.230      44.058
  C       93.533      24.784      46.029
  N       93.153      23.402      46.274
  C       94.110      22.437      45.935
  O       95.187      22.782      45.443
  N       93.805      21.112      46.126
  C       92.648      20.782      46.607
  N       92.401      19.456      46.779
  C       91.604      21.767      46.957
  C       91.918      23.046      46.761
  O       90.132      28.363      49.925
  O       89.655      25.987      50.783
  H       93.722      25.547      43.523
  H       89.199      28.307      49.646
  H       90.654      21.438      47.354
  H       91.210      23.834      46.991
  H       94.546      24.788      45.608
  H       91.861      24.836      44.563
  H       90.992      25.943      46.501
  H       93.633      27.499      46.602
  H       93.134      18.804      46.523
  H       93.237      27.476      49.029
  H       91.540      19.097      47.168
  H       91.923      28.326      48.186
  P       89.803      27.750      45.050
  C       90.147      26.934      42.642
  O       89.560      26.660      43.900
  O       89.726      29.126      44.230
  O       88.853      27.726      46.199
  H       88.797      29.352      44.047
  H       90.039      26.050      42.006
  H       91.210      27.161      42.756
  H       89.635      27.775      42.167
  H       93.340      26.484      52.541
  H       93.059      25.583      51.070
  H       91.911      25.490      52.385

 3  4  5  6  7  8  9  10  11  12  13  21  23  27  28  29  30  32 0
 6-311+G(2d,p)
 ****
 34  35 0
 6-311+G(2d,p)
 ****
 1  2  14  15  16  17  18  19  20  22  24  25  26 0
 3-21G
 ****
 31  33  36  37  38  39  40  41  42  43  44  45  46 0
 3-21G
 ****


