%nproc=1
%NoSave
%Mem=1900MB
#P OB98/GEN NMR

erre ene a

0 1
  C       35.435     657.474     579.189
  O       34.053     657.216     579.376
  P       33.024     657.206     578.135
  C       31.580     655.303     579.141
  O       32.457     655.704     578.090
  C       32.050     653.989     579.743
  O       33.415     654.115     580.222
  C       31.236     653.511     580.951
  O       29.998     652.954     580.535
  C       32.226     652.528     581.584
  O       32.186     651.268     580.878
  C       33.585     653.230     581.337
  N       34.069     653.946     582.521
  C       35.393     653.736     582.879
  O       36.126     652.966     582.222
  N       35.915     654.404     583.965
  C       35.146     655.206     584.653
  N       35.717     655.898     585.676
  C       33.720     655.414     584.335
  C       33.258     654.760     583.262
  O       33.603     657.686     576.842
  O       31.772     658.039     578.641
  H       32.462     651.460     579.969
  H       31.841     659.017     578.466
  H       33.114     656.087     584.935
  H       32.223     654.880     582.955
  H       34.345     652.483     581.040
  H       32.010     652.334     582.648
  H       31.052     654.344     581.646
  H       32.043     653.214     578.945
  H       36.725     655.864     585.733
  H       30.578     655.183     578.726
  H       35.279     656.733     586.049
  H       31.557     656.106     579.906
  P       28.688     653.875     580.769
  C       27.461     652.520     578.908
  O       27.858     653.802     579.399
  O       29.262     655.362     580.809
  O       27.909     653.525     582.007
  H       29.348     655.667     581.734
  H       26.731     652.660     578.118
  H       27.020     651.921     579.712
  H       28.335     652.002     578.489
  H       35.936     657.434     580.133
  H       35.561     658.446     578.759
  H       35.850     656.737     578.534

 3  4  5  6  7  8  9  10  11  12  13  23  27  28  29  30  32 0
 6-311+G(2d,p)
 ****
 34  35 0
 6-311+G(2d,p)
 ****
 1  2  14  15  16  17  18  19  20  21  22  24  25  26 0
 3-21G
 ****
 31  33  36  37  38  39  40  41  42  43  44  45  46 0
 3-21G
 ****


