%nproc=1
%NoSave
%Mem=1900MB
#P OB98/GEN NMR

erre ene a

0 1
  C     -248.395     330.829    -607.186
  O     -249.377     329.839    -607.478
  P     -250.918     330.182    -607.202
  C     -251.318     328.795    -604.985
  O     -251.239     330.039    -605.647
  C     -251.665     329.031    -603.507
  O     -252.663     330.063    -603.384
  C     -252.211     327.792    -602.814
  O     -251.186     326.961    -602.297
  C     -253.094     328.396    -601.734
  O     -252.291     328.859    -600.631
  C     -253.716     329.593    -602.490
  N     -254.943     329.357    -603.290
  C     -256.195     329.552    -602.718
  O     -256.370     329.919    -601.562
  N     -257.271     329.325    -603.526
  C     -257.234     329.083    -604.873
  O     -258.241     328.951    -605.559
  C     -255.889     329.036    -605.461
  C     -254.837     329.153    -604.661
  O     -251.703     328.955    -607.868
  O     -251.365     331.499    -607.761
  H     -252.904     329.182    -599.942
  H     -252.247     329.261    -608.619
  H     -258.186     329.391    -603.109
  H     -255.818     328.897    -606.528
  H     -253.827     329.115    -605.088
  H     -253.948     330.410    -601.801
  H     -253.782     327.654    -601.320
  H     -252.855     327.232    -603.498
  H     -250.755     329.374    -602.988
  H     -250.373     328.257    -605.063
  H     -252.083     328.172    -605.458
  P     -250.803     325.599    -603.057
  C     -252.487     324.078    -601.861
  O     -252.148     324.725    -603.081
  O     -249.580     324.898    -602.569
  O     -250.669     326.058    -604.592
  H     -249.722     326.231    -604.816
  H     -253.489     323.653    -601.958
  H     -252.489     324.802    -601.035
  H     -251.775     323.272    -601.656
  H     -247.423     330.449    -607.424
  H     -248.437     331.077    -606.146
  H     -248.587     331.705    -607.769

 3  4  5  6  7  8  9  10  11  12  13  23  28  29  30  31  32 0
 6-311+G(2d,p)
 ****
 33  34 0
 6-311+G(2d,p)
 ****
 1  2  14  15  16  17  18  19  20  21  22  24  25  26  27 0
 3-21G
 ****
 35  36  37  38  39  40  41  42  43  44  45 0
 3-21G
 ****


