%nproc=1
%NoSave
%Mem=1900MB
#P OB98/GEN NMR

erre ene a

0 1
  C      317.277    -151.748     -49.756
  O      316.257    -152.581     -49.237
  P      315.135    -151.917     -48.303
  C      315.916    -152.621     -45.904
  O      315.020    -152.823     -46.988
  C      315.931    -153.860     -45.009
  O      314.622    -154.119     -44.456
  C      316.311    -155.145     -45.736
  O      317.726    -155.230     -45.937
  C      315.766    -156.210     -44.801
  O      316.692    -156.486     -43.738
  C      314.489    -155.535     -44.268
  N      313.278    -156.059     -44.879
  C      312.822    -157.289     -44.403
  O      313.411    -157.911     -43.524
  N      311.691    -157.776     -44.987
  C      311.006    -157.205     -46.020
  O      310.031    -157.732     -46.543
  C      311.549    -155.937     -46.519
  C      312.635    -155.429     -45.933
  O      313.769    -152.177     -49.081
  O      315.349    -150.463     -48.011
  H      316.196    -156.939     -43.031
  H      313.158    -151.421     -48.956
  H      311.326    -158.660     -44.629
  H      311.034    -155.455     -47.345
  H      313.070    -154.487     -46.297
  H      314.417    -155.679     -43.178
  H      315.590    -157.164     -45.323
  H      315.791    -155.200     -46.705
  H      316.629    -153.677     -44.173
  H      315.583    -151.746     -45.322
  H      316.914    -152.415     -46.297
  P      318.228    -155.623     -47.414
  C      317.811    -158.186     -47.122
  O      318.744    -157.132     -47.286
  O      319.567    -154.730     -47.516
  O      317.218    -155.331     -48.476
  H      320.003    -154.628     -46.641
  H      316.876    -157.992     -47.669
  H      317.586    -158.298     -46.056
  H      318.239    -159.100     -47.488
  H      317.944    -152.332     -50.355
  H      317.820    -151.303     -48.948
  H      316.838    -150.979     -50.357

 3  4  5  6  7  8  9  10  11  12  13  23  28  29  30  31  32 0
 6-311+G(2d,p)
 ****
 33  34 0
 6-311+G(2d,p)
 ****
 1  2  14  15  16  17  18  19  20  21  22  24  25  26 0
 3-21G
 ****
 27  35  36  37  38  39  40  41  42  43  44  45 0
 3-21G
 ****


