%nproc=1
%NoSave
%Mem=1900MB
#P OB98/GEN NMR

erre ene a

0 1
  C     -115.503      14.791     435.884
  O     -116.680      14.546     435.113
  P     -118.125      15.159     435.429
  C     -118.072      17.320     433.934
  O     -118.042      16.750     435.238
  C     -119.477      17.883     433.562
  O     -119.830      18.918     434.530
  C     -119.415      18.576     432.201
  O     -119.544      17.801     431.014
  C     -120.409      19.721     432.304
  O     -121.707      19.365     431.821
  C     -120.459      20.006     433.821
  N     -120.970      24.619     435.996
  C     -121.921      23.637     435.781
  N     -123.196      23.944     436.138
  N     -121.670      22.471     435.230
  C     -120.380      22.340     434.840
  C     -119.340      23.221     434.979
  C     -119.634      24.489     435.625
  O     -118.811      25.390     435.859
  N     -118.177      22.744     434.438
  C     -118.519      21.570     433.953
  N     -119.845      21.278     434.182
  O     -118.778      14.662     436.678
  O     -119.013      14.683     434.180
  H     -122.053      18.645     432.372
  H     -119.930      14.544     434.523
  H     -121.210      25.481     436.424
  H     -117.845      20.897     433.428
  H     -121.502      20.054     434.174
  H     -120.076      20.580     431.709
  H     -123.470      24.857     436.452
  H     -118.420      19.056     432.120
  H     -123.924      23.323     435.792
  H     -120.235      17.101     433.630
  H     -117.783      16.531     433.231
  H     -117.316      18.114     433.853
  P     -118.566      17.850     429.736
  C     -117.087      15.907     430.521
  O     -117.142      17.286     430.197
  O     -118.280      19.412     429.538
  O     -119.120      17.240     428.496
  H     -117.910      19.573     428.627
  H     -116.174      15.712     431.103
  H     -117.066      15.304     429.612
  H     -117.952      15.621     431.131
  H     -114.679      14.261     435.455
  H     -115.658      14.456     436.888
  H     -115.290      15.840     435.887

 3  4  5  6  7  8  9  10  11  12  23  26  30  31 0
 6-311+G(2d,p)
 ****
 33  35  36  37  38 0
 6-311+G(2d,p)
 ****
 1  2  13  14  15  16  17  18  19  20  21  22  24  25 0
 3-21G
 ****
 27  28  29  32  34  39  40  41  42  43  44  45  46  47  48  49 0
 3-21G
 ****


