%nproc=1
%NoSave
%Mem=1900MB
#P OB98/GEN NMR

erre ene a

0 1
  C      129.709     407.816    -352.657
  O      130.771     408.048    -351.752
  H      128.778     407.734    -352.090
  H      129.876     406.878    -353.196
  H      129.620     408.647    -353.365
  P      132.207     408.380    -352.394
  C      134.060     406.842    -353.446
  O      132.704     407.009    -353.066
  C      134.490     405.384    -353.286
  O      134.651     405.103    -351.870
  C      133.485     404.378    -353.847
  O      134.210     403.271    -354.396
  C      132.720     403.917    -352.618
  O      132.116     402.641    -352.807
  C      133.822     403.965    -351.547
  N      133.280     404.061    -350.192
  C      133.853     403.228    -349.229
  O      134.760     402.452    -349.535
  N      133.362     403.261    -347.945
  C      132.346     404.011    -347.665
  N      131.887     403.982    -346.385
  C      131.680     404.876    -348.665
  C      132.200     404.862    -349.890
  O      133.123     408.520    -351.092
  O      132.221     409.570    -353.291
  H      132.790     402.024    -353.168
  H      132.969     407.822    -350.431
  H      130.825     405.482    -348.385
  H      131.779     405.469    -350.683
  H      134.452     403.068    -351.602
  H      131.928     404.632    -352.378
  H      132.834     404.811    -354.611
  H      135.476     405.256    -353.746
  H      132.362     403.357    -345.736
  H      134.709     407.483    -352.838
  H      131.069     404.480    -346.066
  H      134.159     407.153    -354.495
  P      134.103     402.960    -355.964
  C      132.333     402.043    -357.614
  O      132.581     402.621    -356.338
  O      135.118     402.010    -356.503
  O      134.299     404.418    -356.624
  H      134.867     404.309    -357.412
  H      131.283     401.870    -357.729
  H      132.858     401.114    -357.693
  H      132.671     402.710    -358.379

 6  7  8  9  10  11  12  13  14  15  16  26  30  31  32  33  35 0
 6-311+G(2d,p)
 ****
 37  38 0
 6-311+G(2d,p)
 ****
 1  2  3  4  5  17  18  19  20  21  22  23  24  25 0
 3-21G
 ****
 27  28  29  34  36  39  40  41  42  43  44  45  46 0
 3-21G
 ****


