%nproc=1
%NoSave
%Mem=1900MB
#P OB98/GEN NMR

erre ene a

0 1
  C     1063.256     202.899     363.326
  O     1064.568     203.259     363.746
  P     1064.711     204.505     364.760
  C     1066.374     203.224     366.328
  O     1065.110     203.862     366.181
  C     1066.651     202.949     367.820
  O     1066.605     204.196     368.572
  C     1065.685     201.954     368.476
  O     1066.462     201.164     369.393
  C     1064.733     202.869     369.221
  O     1064.083     202.187     370.294
  C     1065.700     203.972     369.678
  N     1065.022     205.212     370.053
  C     1065.145     205.617     371.375
  O     1065.734     204.952     372.230
  N     1064.535     206.793     371.697
  C     1063.752     207.551     370.878
  O     1063.223     208.607     371.202
  C     1063.560     207.017     369.509
  C     1064.177     205.884     369.175
  O     1063.186     204.926     364.931
  O     1065.635     205.560     364.258
  H     1062.562     204.187     364.941
  H     1064.772     201.751     370.857
  H     1064.645     207.123     372.647
  H     1062.894     207.541     368.844
  H     1064.039     205.440     368.193
  H     1066.306     203.642     370.526
  H     1063.979     203.266     368.544
  H     1065.181     201.316     367.756
  H     1067.683     202.551     367.892
  H     1067.169     203.868     365.935
  H     1066.375     202.301     365.739
  P     1067.317     199.941     368.805
  C     1069.565     201.210     369.253
  O     1068.728     200.514     368.341
  O     1066.550     199.692     367.417
  O     1067.338     198.715     369.662
  H     1066.388     200.523     366.930
  H     1070.556     201.301     368.804
  H     1069.656     200.649     370.188
  H     1069.163     202.197     369.446
  H     1063.311     202.063     362.661
  H     1062.803     203.727     362.821
  H     1062.667     202.637     364.180

 3  4  5  6  7  8  9  10  11  12  13  24  28  29  30  31  32 0
 6-311+G(2d,p)
 ****
 33  34 0
 6-311+G(2d,p)
 ****
 1  2  14  15  16  17  18  19  20  21  22  23  25  26  27 0
 3-21G
 ****
 35  36  37  38  39  40  41  42  43  44  45 0
 3-21G
 ****


