%nproc=1
%NoSave
%Mem=1900MB
#P OB98/GEN NMR

erre ene a

0 1
  C     -314.054     735.499    -215.822
  O     -313.178     734.399    -215.886
  H     -313.473     736.425    -215.929
  H     -314.562     735.520    -214.850
  H     -314.792     735.460    -216.627
  P     -313.853     732.940    -215.789
  C     -314.329     731.248    -213.859
  O     -313.786     732.516    -214.240
  C     -313.544     730.682    -212.681
  O     -312.169     730.460    -213.078
  C     -313.468     731.614    -211.485
  O     -314.666     731.576    -210.708
  C     -312.259     731.055    -210.739
  O     -312.601     729.937    -209.924
  C     -311.352     730.608    -211.889
  N     -307.072     732.636    -209.979
  C     -307.894     731.661    -209.521
  N     -309.015     731.170    -210.107
  C     -309.245     731.778    -211.286
  C     -308.490     732.788    -211.870
  C     -307.360     733.212    -211.163
  N     -306.539     734.239    -211.609
  N     -309.072     733.193    -213.070
  C     -310.132     732.425    -213.199
  N     -310.277     731.553    -212.139
  O     -312.762     731.991    -216.491
  O     -315.200     732.815    -216.432
  H     -313.067     729.297    -210.506
  H     -312.989     731.866    -217.428
  H     -307.632     731.223    -208.565
  H     -310.841     732.466    -214.027
  H     -310.884     729.642    -211.694
  H     -311.817     731.821    -210.087
  H     -313.270     732.649    -211.796
  H     -313.975     729.715    -212.410
  H     -314.244     730.559    -214.709
  H     -315.389     731.378    -213.599
  H     -305.759     734.505    -211.041
  H     -306.806     734.744    -212.440
  P     -315.099     732.885    -209.896
  C     -315.441     733.348    -207.346
  O     -314.705     732.662    -208.364
  O     -316.706     732.822    -209.887
  O     -314.608     734.178    -210.478
  H     -317.066     733.403    -210.566
  H     -315.049     733.087    -206.385
  H     -316.472     733.066    -207.399
  H     -315.353     734.404    -207.492

 6  7  8  9  10  11  12  13  14  15  25  28  32  33  34  35 0
 6-311+G(2d,p)
 ****
 36  37  40 0
 6-311+G(2d,p)
 ****
 1  2  3  4  5  16  17  18  19  20  21  22  23  24 0
 3-21G
 ****
 26  27  29  30  31  38  39 41  42  43  44  45  46  47  48 0
 3-21G
 ****


