%nproc=1
%NoSave
%Mem=1900MB
#P OB98/GEN NMR

erre ene a

0 1
  C      -54.471    -101.226      -6.021
  O      -54.154    -101.441      -4.641
  P      -54.861    -100.483      -3.563
  C      -52.654     -99.251      -2.872
  O      -53.719    -100.114      -2.501
  C      -51.379     -99.642      -2.128
  O      -50.770    -100.807      -2.737
  C      -50.299     -98.570      -2.136
  O      -50.616     -97.510      -1.248
  C      -49.076     -99.390      -1.747
  O      -49.039     -99.590      -0.325
  C      -49.349    -100.731      -2.461
  N      -48.561    -100.906      -3.673
  C      -47.413    -101.684      -3.542
  O      -47.056    -102.180      -2.475
  N      -46.675    -101.855      -4.682
  C      -46.950    -101.313      -5.903
  O      -46.256    -101.510      -6.892
  C      -48.147    -100.460      -5.968
  C      -48.887    -100.297      -4.869
  O      -55.801    -101.523      -2.797
  O      -55.569     -99.328      -4.187
  H      -55.402    -102.406      -2.712
  H      -48.263    -100.158      -0.147
  H      -45.847    -102.426      -4.610
  H      -48.381     -99.992      -6.915
  H      -49.773     -99.669      -4.896
  H      -49.127    -101.569      -1.787
  H      -48.138     -98.904      -2.034
  H      -50.174     -98.176      -3.152
  H      -51.652     -99.897      -1.095
  H      -52.910     -98.217      -2.626
  H      -52.513     -99.308      -3.956
  P      -50.245     -96.022      -1.734
  C      -50.226     -95.133       0.724
  O      -50.750     -95.031      -0.582
  O      -51.301     -95.812      -2.919
  O      -48.819     -95.863      -2.144
  H      -52.194     -96.117      -2.690
  H      -50.414     -94.192       1.252
  H      -49.150     -95.317       0.711
  H      -50.730     -95.942       1.259
  H      -53.934    -101.928      -6.624
  H      -54.193    -100.231      -6.300
  H      -55.522    -101.358      -6.170

 3  4  5  6  7  8  9  10  11  12  13  24  28  29  30  31  32 0
 6-311+G(2d,p)
 ****
 33  34 0
 6-311+G(2d,p)
 ****
 1  2  14  15  16  17  18  19  20  21  22  23  25  26  27 0
 3-21G
 ****
 35  36  37  38  39  40  41  42  43  44  45 0
 3-21G
 ****


