%nproc=1
%NoSave
%Mem=1900MB
#P OB98/GEN NMR

erre ene a

0 1
  C      167.772     179.850      -1.683
  O      168.237     179.984      -3.032
  P      167.783     181.201      -3.973
  C      167.747     183.738      -3.533
  O      168.514     182.540      -3.475
  C      168.488     184.918      -2.894
  O      168.692     184.690      -1.486
  C      169.868     185.190      -3.483
  O      169.759     185.885      -4.711
  C      170.522     185.980      -2.352
  O      170.111     187.357      -2.396
  C      169.947     185.289      -1.109
  N      171.629     183.161       3.226
  C      170.707     184.118       2.988
  N      170.317     184.636       1.805
  C      170.971     184.043       0.791
  C      171.941     183.057       0.879
  C      172.272     182.611       2.169
  N      173.223     181.647       2.409
  N      172.405     182.714      -0.374
  C      171.713     183.468      -1.206
  N      170.834     184.287      -0.550
  O      166.304     181.334      -4.132
  O      168.479     180.903      -5.385
  H      170.512     187.806      -1.630
  H      167.947     181.294      -6.102
  H      170.215     184.525       3.868
  H      171.809     183.455      -2.283
  H      169.723     186.009      -0.314
  H      171.615     185.963      -2.402
  H      170.407     184.248      -3.626
  H      167.849     185.805      -2.991
  H      166.801     183.570      -3.005
  H      173.427     181.405       3.366
  H      173.740     181.264       1.631
  H      167.528     183.961      -4.583
  P      170.169     185.164      -6.080
  C      169.092     183.509      -7.716
  O      168.948     184.212      -6.497
  O      171.513     184.516      -6.091
  O      170.082     186.340      -7.166
  H      170.722     186.163      -7.883
  H      168.856     184.175      -8.551
  H      168.389     182.670      -7.722
  H      170.107     183.122      -7.829
  H      168.199     178.972      -1.244
  H      166.705     179.768      -1.680
  H      168.065     180.710      -1.118

 3  4  5  6  7  8  9  10  11  12  22  25  29  30  31  32 0
 6-311+G(2d,p)
 ****
 33  36  37 0
 6-311+G(2d,p)
 ****
 1  2  13  14  15  16  17  18  19  20  21  23  24  26 0
 3-21G
 ****
 27  28  34  35  38  39  40  41  42  43  44  45  46  47  48 0
 3-21G
 ****


