%nproc=1
%NoSave
%Mem=1900MB
#P OB98/GEN NMR

erre ene a

0 1
  C        3.675     467.442    -893.220
  O        4.612     468.251    -892.470
  P        4.044     469.315    -891.390
  C        5.121     471.554    -892.070
  O        3.915     470.742    -892.090
  C        4.957     472.679    -893.040
  O        4.782     472.220    -894.410
  C        3.796     473.629    -892.780
  O        4.065     474.480    -891.670
  C        3.635     474.331    -894.110
  O        4.557     475.424    -894.220
  C        4.006     473.204    -895.130
  N        1.477     472.439    -899.480
  C        2.509     473.262    -899.160
  N        3.114     473.405    -897.990
  C        2.486     472.665    -897.010
  C        1.391     471.841    -897.170
  C        0.890     471.698    -898.490
  N       -0.151     470.855    -898.820
  N        1.023     471.281    -895.990
  C        1.882     471.770    -895.100
  N        2.836     472.565    -895.730
  O        4.743     469.297    -890.070
  O        2.492     468.842    -891.190
  H        4.626     475.631    -895.200
  H        2.344     468.596    -890.250
  H        2.955     473.779    -900.000
  H        1.875     471.575    -894.040
  H        4.657     473.586    -895.930
  H        2.613     474.746    -894.280
  H        2.879     473.015    -892.570
  H        5.912     473.290    -893.030
  H        5.972     470.900    -892.360
  H       -0.304     470.702    -899.790
  H       -0.377     470.081    -898.160
  H        5.294     471.904    -891.050
  P        2.924     475.490    -891.140
  C        4.469     477.539    -891.430
  O        3.245     476.919    -891.780
  O        2.664     475.490    -889.650
  O        1.590     475.012    -891.950
  H        0.776     475.158    -891.410
  H        4.403     477.931    -890.400
  H        4.732     478.300    -892.090
  H        5.290     476.769    -891.420
  H        4.212     466.798    -893.884
  H        3.028     468.079    -893.786
  H        3.092     466.852    -892.544

 3  4  5  6  7  8  9  10  11  12  22  25  29  30  31  32 0
 6-311+G(2d,p)
 ****
 33  36  37 0
 6-311+G(2d,p)
 ****
 1  2  13  14  15  16  17  18  19  20  21  23  24  26 0
 3-21G
 ****
 27  28  34  35  38  39  40  41  42  43  44  45  46  47  48 0
 3-21G
 ****


