%nproc=1
%NoSave
%Mem=1900MB
#P OB98/GEN NMR

erre ene a

0 1
  C       26.773      25.526      42.654
  O       25.460      25.560      43.172
  H       27.474      25.746      43.463
  H       26.890      26.285      41.876
  H       27.008      24.538      42.249
  P       24.248      25.091      42.235
  C       23.969      22.533      42.443
  O       23.591      23.809      42.936
  C       23.631      21.435      43.458
  O       24.455      21.633      44.647
  C       22.161      21.435      43.922
  O       21.822      20.078      44.240
  C       22.256      22.290      45.173
  O       21.091      22.235      45.956
  C       23.549      21.717      45.769
  N       24.139      22.497      46.849
  C       23.807      22.148      48.155
  O       23.055      21.226      48.462
  N       24.378      22.914      49.137
  C       25.236      23.957      48.948
  O       25.741      24.586      49.869
  C       25.543      24.282      47.547
  C       24.995      23.546      46.578
  O       24.573      24.924      40.789
  O       23.138      26.225      42.461
  H       23.141      26.841      41.704
  H       21.079      21.388      46.453
  H       24.152      22.674      50.089
  H       26.212      25.111      47.360
  H       25.210      23.756      45.536
  H       23.377      20.694      46.119
  H       22.383      23.340      44.899
  H       21.472      21.816      43.164
  H       23.911      20.464      43.035
  H       25.049      22.544      42.258
  H       23.449      22.345      41.498
  P       21.485      18.968      43.130
  C       22.856      17.170      41.870
  O       22.871      18.436      42.520
  O       20.510      19.424      42.095
  O       20.916      17.714      43.946
  H       20.324      17.193      43.372
  H       23.838      16.940      41.514
  H       22.176      17.201      41.045
  H       22.543      16.417      42.563

 6  7  8  9  10  11  12  13  14  15  16  27  31  32  33  34  35 0
 6-311+G(2d,p)
 ****
 36  37 0
 6-311+G(2d,p)
 ****
 1  2  3  4  5  17  18  19  20  21  22  23  24  25 0
 3-21G
 ****
 26  28  29  30  38  39  40  41  42  43  44  45 0
 3-21G
 ****


