%nproc=1
%NoSave
%Mem=1900MB
#P OB98/GEN NMR

erre ene a

0 1
  C     -128.763    -374.963     -52.150
  O     -127.765    -374.838     -53.160
  P     -126.237    -374.681     -52.710
  C     -125.776    -372.312     -53.794
  O     -125.844    -373.135     -52.653
  C     -124.898    -371.088     -53.487
  O     -125.573    -370.208     -52.562
  C     -123.556    -371.451     -52.859
  O     -122.575    -371.745     -53.837
  C     -123.247    -370.214     -52.043
  O     -122.756    -369.161     -52.892
  C     -124.648    -369.856     -51.494
  N     -125.096    -370.511     -50.245
  C     -124.977    -369.843     -49.030
  O     -124.510    -368.713     -48.905
  N     -125.432    -370.514     -47.926
  C     -126.133    -371.685     -47.926
  O     -126.568    -372.213     -46.911
  C     -126.362    -372.277     -49.248
  C     -125.835    -371.685     -50.324
  O     -125.414    -375.239     -53.961
  O     -125.890    -375.402     -51.445
  H     -123.511    -368.836     -53.415
  H     -124.921    -376.044     -53.713
  H     -125.289    -370.077     -47.029
  H     -126.955    -373.180     -49.301
  H     -125.999    -372.117     -51.307
  H     -124.733    -368.775     -51.328
  H     -122.460    -370.406     -51.315
  H     -123.677    -372.289     -52.166
  H     -124.735    -370.536     -54.421
  H     -126.774    -371.987     -54.100
  H     -125.356    -372.877     -54.632
  P     -122.361    -373.254     -54.326
  C     -120.132    -373.216     -53.058
  O     -121.346    -373.910     -53.271
  O     -122.005    -373.431     -55.764
  O     -123.750    -373.967     -53.960
  H     -124.348    -373.988     -54.742
  H     -119.612    -373.673     -52.211
  H     -120.329    -372.164     -52.827
  H     -119.501    -373.289     -53.947
  H     -129.725    -375.059     -52.609
  H     -128.750    -374.094     -51.526
  H     -128.563    -375.831     -51.556

 3  4  5  6  7  8  9  10  11  12  13  23  28  29  30  31  32 0
 6-311+G(2d,p)
 ****
 33  34 0
 6-311+G(2d,p)
 ****
 1  2  14  15  16  17  18  19  20  21  22  24  25  26  27 0
 3-21G
 ****
 35  36  37  38  39  40  41  42  43  44  45 0
 3-21G
 ****


