%nproc=1
%NoSave
%Mem=1900MB
#P OB98/GEN NMR

erre ene a

0 1
  C      457.758     211.473    -735.988
  O      458.511     211.455    -737.195
  P      458.061     210.412    -738.331
  C      460.050     211.176    -739.830
  O      459.385     210.091    -739.182
  C      461.296     210.669    -740.557
  O      462.304     210.283    -739.598
  C      461.060     209.444    -741.418
  O      460.427     209.804    -742.631
  C      462.477     208.916    -741.597
  O      463.128     209.550    -742.697
  C      463.148     209.311    -740.255
  N      463.398     208.173    -739.399
  C      464.621     207.497    -739.604
  O      465.391     207.882    -740.496
  N      464.906     206.386    -738.842
  C      464.055     205.992    -737.947
  N      464.390     204.896    -737.214
  C      462.751     206.653    -737.703
  C      462.489     207.717    -738.460
  O      457.182     211.306    -739.324
  O      457.310     209.216    -737.823
  H      464.056     209.240    -742.676
  H      456.534     210.760    -739.794
  H      462.072     206.274    -736.949
  H      461.560     208.259    -738.360
  H      464.113     209.810    -740.442
  H      462.488     207.840    -741.788
  H      460.448     208.704    -740.878
  H      461.696     211.503    -741.161
  H      465.282     204.450    -737.414
  H      460.343     211.919    -739.083
  H      463.803     204.513    -736.488
  H      459.354     211.653    -740.527
  P      458.985     209.172    -742.934
  C      459.740     209.140    -745.388
  O      459.168     208.406    -744.328
  O      458.135     210.456    -743.374
  O      458.333     208.404    -741.840
  H      457.198     210.217    -743.488
  H      459.950     208.467    -746.225
  H      460.677     209.606    -745.065
  H      459.043     209.913    -745.729
  H      458.164     212.208    -735.325
  H      457.805     210.510    -735.524
  H      456.739     211.714    -736.207

 3  4  5  6  7  8  9  10  11  12  13  21  23  27  28  29  30  32 0
 6-311+G(2d,p)
 ****
 34  35 0
 6-311+G(2d,p)
 ****
 1  2  14  15  16  17  18  19  20  22  24  25  26 0
 3-21G
 ****
 31  33  36  37  38  39  40  41  42  43  44  45  46 0
 3-21G
 ****


