%nproc=1
%NoSave
%Mem=1900MB
#P OB98/GEN NMR

erre ene a

0 1
  C      124.351      96.514     101.053
  O      123.389      95.512     100.779
  H      123.858      97.490     101.171
  H      124.871      96.269     101.984
  H      125.083      96.567     100.232
  P      122.446      95.755      99.505
  C      121.106      97.770      98.568
  O      121.908      97.269      99.629
  C      119.919      98.541      99.118
  O      120.334      99.847      99.599
  C      118.809      98.827      98.116
  O      117.981      97.694      97.908
  C      118.062      99.938      98.820
  O      117.188      99.388      99.820
  C      119.192     100.729      99.501
  N      118.599     105.827      99.087
  C      118.042     104.907      99.923
  N      118.237     103.570      99.962
  C      119.126     103.195      99.038
  C      119.767     103.993      98.096
  C      119.468     105.377      98.148
  N      120.026     106.292      97.268
  N      120.611     103.255      97.306
  C      120.491     102.025      97.746
  N      119.586     101.925      98.782
  O      121.149      94.865      99.830
  O      123.047      95.396      98.189
  H      117.733      98.785     100.376
  H      120.803      94.501      98.996
  H      117.353     105.311     100.650
  H      121.029     101.171      97.341
  H      118.928     101.010     100.527
  H      117.449     100.549      98.155
  H      119.226      99.210      97.170
  H      119.515      97.987      99.989
  H      120.730      96.938      97.958
  H      119.927     107.274      97.483
  H      120.692     105.956      96.581
  H      121.728      98.427      97.937
  P      116.870      97.789      96.738
  C      114.832      99.333      96.300
  O      115.975      99.075      97.111
  O      115.904      96.558      97.054
  O      117.412      97.737      95.336
  H      115.449      96.271      96.239
  H      114.333     100.210      96.656
  H      114.165      98.498      96.348
  H      115.141      99.485      95.287

 6  7  8  9  10  11  12  13  14  15  25  28  32  33  34  35 0
 6-311+G(2d,p)
 ****
 36  39  40 0
 6-311+G(2d,p)
 ****
 1  2  3  4  5  16  17  18  19  20  21  22  23  24 0
 3-21G
 ****
 26  27  29  30  31  37  38  41  42  43  44  45  46  47  48 0
 3-21G
 ****


