%nproc=1
%NoSave
%Mem=1900MB
#P OB98/GEN NMR

erre ene a

0 1
  C      -95.531    -546.590     106.503
  O      -95.823    -547.860     107.108
  P      -96.650    -547.896     108.487
  C      -95.751    -550.085     109.608
  O      -96.822    -549.425     108.942
  C      -95.637    -551.529     109.111
  O      -96.847    -552.265     109.396
  C      -95.433    -551.664     107.605
  O      -94.102    -551.369     107.220
  C      -95.824    -553.122     107.382
  O      -94.720    -553.998     107.674
  C      -96.959    -553.311     108.405
  N      -98.280    -553.316     107.781
  C      -98.479    -554.248     106.758
  O      -97.590    -554.986     106.343
  N      -99.729    -554.266     106.208
  C     -100.760    -553.426     106.524
  O     -101.859    -553.483     105.976
  C     -100.469    -552.415     107.552
  C      -99.261    -552.404     108.123
  O      -98.135    -547.531     107.994
  O      -96.194    -546.945     109.542
  H      -95.019    -554.902     107.456
  H      -98.620    -547.098     108.725
  H      -99.903    -554.948     105.490
  H     -101.254    -551.714     107.815
  H      -99.032    -551.668     108.881
  H      -96.825    -554.256     108.947
  H      -96.121    -553.316     106.347
  H      -96.148    -551.017     107.079
  H      -94.808    -552.011     109.653
  H      -95.949    -550.093     110.686
  H      -94.824    -549.535     109.423
  P      -93.900    -550.112     106.244
  C      -92.185    -550.956     104.463
  O      -92.413    -550.260     105.666
  O      -93.815    -548.912     107.301
  O      -94.990    -549.971     105.231
  H      -93.396    -549.186     108.138
  H      -93.021    -550.840     103.761
  H      -92.044    -552.016     104.681
  H      -91.275    -550.562     103.991
  H      -94.979    -546.744     105.599
  H      -94.950    -545.998     107.179
  H      -96.446    -546.082     106.280

 3  4  5  6  7  8  9  10  11  12  13  23  28  29  30  31  32 0
 6-311+G(2d,p)
 ****
 33  34 0
 6-311+G(2d,p)
 ****
 1  2  14  15  16  17  18  19  20  21  22  24  25  26 0
 3-21G
 ****
 27  35  36  37  38  39  40  41  42  43  44  45 0
 3-21G
 ****


