%nproc=1
%NoSave
%Mem=1900MB
#P OB98/GEN NMR

erre ene a

0 1
  C      645.753     890.530    -659.426
  O      646.076     891.816    -658.933
  H      646.516     889.827    -659.056
  H      645.761     890.510    -660.512
  H      644.786     890.216    -659.046
  P      645.266     893.080    -659.538
  C      643.196     893.001    -657.985
  O      643.714     892.743    -659.295
  C      642.331     894.258    -657.970
  O      641.270     894.143    -658.956
  C      641.613     894.500    -656.647
  O      642.483     894.857    -655.583
  C      640.488     895.433    -657.042
  O      640.860     896.798    -657.077
  C      640.170     894.953    -658.496
  N      638.899     894.241    -658.578
  C      637.759     895.009    -658.362
  O      637.796     896.222    -658.101
  N      636.562     894.347    -658.420
  C      636.414     892.998    -658.617
  O      635.316     892.447    -658.614
  C      637.661     892.233    -658.808
  C      638.834     892.877    -658.771
  O      645.593     893.434    -660.957
  O      645.563     894.255    -658.498
  H      640.130     897.285    -657.538
  H      645.339     895.135    -658.881
  H      635.730     894.890    -658.295
  H      637.571     891.159    -658.954
  H      639.757     892.310    -658.901
  H      640.119     895.810    -659.177
  H      639.638     895.336    -656.369
  H      641.149     893.562    -656.338
  H      642.963     895.105    -658.243
  H      644.057     893.142    -657.312
  H      642.627     892.123    -657.637
  P      642.071     894.819    -654.040
  C      643.253     892.496    -653.870
  O      642.107     893.270    -653.570
  O      640.925     895.678    -653.637
  O      643.390     895.397    -653.333
  H      643.111     895.903    -652.549
  H      643.121     891.503    -653.495
  H      644.112     892.939    -653.412
  H      643.392     892.461    -654.930

 6  7  8  9  10  11  12  13  14  15  16  26  31  32  33  34  35 0
 6-311+G(2d,p)
 ****
 36  37 0
 6-311+G(2d,p)
 ****
 1  2  3  4  5  17  18  19  20  21  22  23  24  25 0
 3-21G
 ****
 27  28  29  30  38  39  40  41  42  43  44  45 0
 3-21G
 ****


