%nproc=1
%NoSave
%Mem=1900MB
#P OB98/GEN NMR

erre ene a

0 1
  C     -889.967     854.322    -891.040
  O     -890.597     855.187    -890.110
  H     -888.867     854.398    -890.910
  H     -890.197     854.619    -892.070
  H     -890.277     853.286    -890.860
  P     -892.187     855.317    -890.240
  C     -893.707     856.439    -892.050
  O     -892.397     856.274    -891.510
  C     -893.987     857.919    -892.340
  O     -892.887     858.466    -893.130
  C     -895.247     858.203    -893.130
  O     -896.437     858.101    -892.350
  C     -894.957     859.597    -893.590
  O     -895.137     860.523    -892.490
  C     -893.457     859.509    -893.990
  N     -893.277     859.143    -895.410
  C     -893.937     859.929    -896.340
  O     -894.637     860.874    -895.990
  N     -893.807     859.620    -897.670
  C     -893.057     858.637    -898.050
  N     -893.007     858.337    -899.370
  C     -892.337     857.758    -897.080
  C     -892.497     858.088    -895.790
  O     -892.587     856.259    -889.010
  O     -892.947     854.018    -890.300
  H     -896.077     860.484    -892.230
  H     -893.537     856.509    -889.070
  H     -891.737     856.920    -897.450
  H     -891.957     857.489    -895.030
  H     -892.937     860.422    -893.780
  H     -895.607     859.924    -894.400
  H     -895.297     857.541    -893.990
  H     -893.977     858.461    -891.380
  H     -893.567     858.902    -900.000
  H     -894.437     856.077    -891.300
  H     -892.577     857.515    -899.750
  H     -893.817     855.859    -892.970
  P     -897.627     857.196    -892.940
  C     -899.107     857.261    -895.080
  O     -898.117     857.896    -894.290
  O     -898.837     857.496    -891.900
  O     -897.287     855.736    -893.050
  H     -899.367     856.674    -891.800
  H     -899.315     857.861    -895.941
  H     -900.000     857.141    -894.504
  H     -898.752     856.301    -895.392

 6  7  8  9  10  11  12  13  14  15  16  26  30  31  32  33  35 0
 6-311+G(2d,p)
 ****
 37  38 0
 6-311+G(2d,p)
 ****
 1  2  3  4  5  17  18  19  20  21  22  23  24  25 0
 3-21G
 ****
 27  28  29  34  36  39  40  41  42  43  44  45  46 0
 3-21G
 ****


