%nproc=1
%NoSave
%Mem=1900MB
#P OB98/GEN NMR

erre ene a

0 1
  C     -784.634     296.596     157.389
  O     -783.828     297.452     158.175
  H     -785.276     297.210     156.747
  H     -785.268     295.977     158.029
  H     -784.007     295.960     156.760
  P     -782.888     296.739     159.265
  C     -781.208     295.325     157.856
  O     -782.451     295.371     158.547
  C     -780.490     294.016     158.173
  O     -780.224     293.908     159.592
  C     -781.291     292.769     157.818
  O     -781.251     292.462     156.435
  C     -780.561     291.729     158.645
  O     -779.310     291.393     158.008
  C     -780.321     292.510     159.957
  N     -781.381     292.309     160.947
  C     -781.323     291.127     161.699
  O     -780.422     290.311     161.514
  N     -782.307     290.887     162.623
  C     -783.260     291.747     162.798
  N     -784.216     291.450     163.722
  C     -783.353     293.009     162.040
  C     -782.390     293.222     161.144
  O     -783.921     296.228     160.377
  O     -781.760     297.559     159.797
  H     -778.836     290.797     158.618
  H     -783.449     295.662     161.037
  H     -784.172     293.694     162.213
  H     -782.393     294.125     160.546
  H     -779.362     292.226     160.414
  H     -781.119     290.797     158.764
  H     -782.325     292.836     158.174
  H     -779.520     294.030     157.657
  H     -784.163     290.548     164.181
  H     -780.600     296.172     158.181
  H     -785.082     291.965     163.789
  H     -781.375     295.393     156.780
  P     -782.555     291.786     155.782
  C     -783.321     293.490     153.975
  O     -783.508     292.987     155.291
  O     -783.332     291.202     157.047
  O     -782.272     290.731     154.759
  H     -783.740     290.339     156.848
  H     -784.020     294.279     153.792
  H     -783.477     292.703     153.267
  H     -782.324     293.867     153.875

 6  7  8  9  10  11  12  13  14  15  16  26  30  31  32  33  35 0
 6-311+G(2d,p)
 ****
 37  38 0
 6-311+G(2d,p)
 ****
 1  2  3  4  5  17  18  19  20  21  22  23  24  25 0
 3-21G
 ****
 27  28  29  34  36  39  40  41  42  43  44  45  46 0
 3-21G
 ****


