%nproc=1
%NoSave
%Mem=1900MB
#P OB98/GEN NMR

erre ene a

0 1
  C     -597.030     296.643     555.276
  O     -596.392     295.429     555.729
  P     -594.802     295.322     555.535
  C     -594.493     292.721     555.479
  O     -594.384     293.930     556.209
  C     -594.613     291.534     556.443
  O     -593.507     291.530     557.381
  C     -595.865     291.541     557.280
  O     -597.015     291.176     556.531
  C     -595.485     290.564     558.384
  O     -595.658     289.205     557.926
  C     -593.977     290.864     558.578
  N     -593.706     291.655     559.770
  C     -593.903     291.006     560.980
  O     -594.295     289.839     561.066
  N     -593.623     291.744     562.103
  C     -593.227     293.045     562.145
  O     -592.996     293.656     563.164
  C     -593.096     293.699     560.823
  C     -593.329     292.981     559.718
  O     -594.296     296.444     556.558
  O     -594.368     295.520     554.127
  H     -594.847     296.502     557.365
  H     -596.626     289.049     557.869
  H     -593.744     291.279     562.996
  H     -592.807     294.738     560.809
  H     -593.241     293.459     558.735
  H     -593.410     289.934     558.643
  H     -596.093     290.682     559.287
  H     -596.021     292.543     557.717
  H     -594.565     290.613     555.839
  H     -593.614     292.585     554.843
  H     -595.358     292.791     554.815
  P     -598.298     292.131     556.643
  C     -600.505     290.761     557.030
  O     -599.542     291.285     556.110
  O     -598.025     293.170     555.453
  O     -598.476     292.762     557.984
  H     -597.701     292.738     554.635
  H     -601.418     290.530     556.483
  H     -600.717     291.476     557.813
  H     -600.115     289.835     557.462
  H     -598.082     296.584     555.463
  H     -596.861     296.765     554.227
  H     -596.620     297.479     555.803

 3  4  5  6  7  8  9  10  11  12  13  24  28  29  30  31  32 0
 6-311+G(2d,p)
 ****
 33  34 0
 6-311+G(2d,p)
 ****
 1  2  14  15  16  17  18  19  20  21  22  23  25  26  27 0
 3-21G
 ****
 35  36  37  38  39  40  41  42  43  44  45 0
 3-21G
 ****


