%nproc=1
%NoSave
%Mem=1900MB
#P OB98/GEN NMR

erre ene a

0 1
  C      707.639    -795.632    -538.971
  O      708.981    -795.888    -538.602
  H      707.420    -794.579    -538.770
  H      706.958    -796.251    -538.383
  H      707.498    -795.827    -540.036
  P      709.496    -797.399    -538.781
  C      709.412    -798.620    -541.052
  O      709.911    -797.499    -540.333
  C      709.914    -798.596    -542.492
  O      709.220    -797.550    -543.222
  C      711.421    -798.316    -542.600
  O      711.973    -799.096    -543.660
  C      711.481    -796.837    -542.981
  O      712.677    -796.508    -543.672
  C      710.203    -796.688    -543.806
  N      711.081    -791.996    -545.641
  C      711.633    -793.203    -545.916
  N      711.323    -794.400    -545.404
  C      710.310    -794.300    -544.524
  C      709.643    -793.148    -544.131
  C      710.083    -791.938    -544.735
  N      709.544    -790.711    -544.431
  N      708.681    -793.442    -543.188
  C      708.758    -794.744    -543.018
  N      709.726    -795.313    -543.802
  O      708.569    -798.464    -538.293
  O      710.924    -797.351    -538.043
  H      712.636    -796.887    -544.579
  H      711.410    -796.548    -538.288
  H      712.430    -793.192    -546.667
  H      708.136    -795.321    -542.344
  H      710.352    -796.969    -544.853
  H      711.424    -796.224    -542.078
  H      711.950    -798.515    -541.667
  H      709.660    -799.546    -542.979
  H      708.314    -798.601    -541.060
  H      709.894    -789.897    -544.909
  H      708.769    -790.647    -543.773
  H      709.740    -799.528    -540.536
  P      712.542    -800.565    -543.309
  C      711.551    -802.942    -543.227
  O      711.466    -801.644    -543.811
  O      713.045    -800.757    -541.927
  O      713.708    -800.732    -544.385
  H      714.454    -801.211    -543.973
  H      710.787    -803.569    -543.638
  H      711.418    -802.866    -542.168
  H      712.511    -803.365    -543.437

 6  7  8  9  10  11  12  13  14  15  25  28  32  33  34  35 0
 6-311+G(2d,p)
 ****
 36  39  40 0
 6-311+G(2d,p)
 ****
 1  2  3  4  5  16  17  18  19  20  21  22  23  24 0
 3-21G
 ****
 26  27  29  30  31  37  38  41  42  43  44  45  46  47 0
 3-21G
 ****
 48 0
 3-21G
 ****


