%nproc=1
%NoSave
%Mem=1900MB
#P OB98/GEN NMR

erre ene a

0 1
  C      126.587    -143.828     177.764
  O      127.146    -145.085     178.096
  H      125.693    -143.674     178.373
  H      126.306    -143.805     176.706
  H      127.305    -143.035     177.980
  P      128.459    -145.524     177.279
  C      130.077    -145.210     179.264
  O      129.656    -144.720     177.995
  C      131.035    -144.213     179.926
  O      130.376    -142.925     180.001
  C      131.439    -144.617     181.350
  O      132.812    -144.273     181.564
  C      130.557    -143.739     182.228
  O      131.125    -143.514     183.511
  C      130.409    -142.483     181.367
  N      128.317    -139.218     184.686
  C      129.581    -139.660     184.533
  N      130.067    -140.522     183.602
  C      129.077    -140.899     182.753
  C      127.753    -140.521     182.787
  C      127.369    -139.650     183.824
  N      126.073    -139.206     184.001
  N      127.050    -141.147     181.769
  C      127.949    -141.873     181.136
  N      129.195    -141.756     181.700
  O      128.384    -145.372     175.794
  O      128.687    -147.021     177.805
  H      131.321    -144.384     183.918
  H      128.570    -147.076     178.773
  H      130.305    -139.281     185.248
  H      127.755    -142.493     180.265
  H      131.251    -141.784     181.494
  H      129.585    -144.228     182.366
  H      131.290    -145.677     181.547
  H      131.917    -144.089     179.281
  H      130.580    -146.176     179.141
  H      125.892    -138.569     184.763
  H      125.360    -139.507     183.348
  H      129.190    -145.355     179.883
  P      133.924    -145.344     181.173
  C      134.713    -143.957     179.143
  O      134.243    -145.222     179.600
  O      133.710    -146.738     181.671
  O      135.258    -144.717     181.835
  H      135.807    -145.453     182.181
  H      134.888    -144.001     178.088
  H      135.625    -143.712     179.646
  H      133.979    -143.207     179.351

 6  7  8  9  10  11  12  13  14  15  25  28  32  33  34  35 0
 6-311+G(2d,p)
 ****
 36  39  40 0
 6-311+G(2d,p)
 ****
 1  2  3  4  5  16  17  18  19  20  21  22  23  24 0
 3-21G
 ****
 26  27  29  30  31  37  38  41  42  43  44  45  46  47 0
 3-21G
 ****
 48 0
 3-21G
 ****


