%nproc=1
%NoSave
%Mem=1900MB
#P OB98/GEN NMR

erre ene a

0 1
  C       -0.302     430.835     -35.821
  O       -1.694     430.663     -36.033
  P       -2.396     431.114     -37.405
  C       -2.831     428.738     -38.327
  O       -2.089     429.936     -38.447
  C       -2.295     427.678     -39.288
  O       -3.089     426.472     -39.144
  C       -2.332     428.084     -40.765
  O       -1.183     427.507     -41.397
  C       -3.600     427.429     -41.267
  O       -3.609     427.246     -42.675
  C       -3.594     426.131     -40.452
  N       -4.920     425.521     -40.361
  C       -5.017     424.146     -40.581
  O       -4.024     423.478     -40.869
  N       -6.250     423.553     -40.469
  C       -7.300     424.277     -40.248
  N       -8.488     423.633     -40.088
  C       -7.256     425.744     -40.115
  C       -6.045     426.291     -40.159
  O       -2.026     432.480     -37.878
  O       -3.956     430.917     -37.134
  H       -3.145     427.997     -43.085
  H       -4.373     431.698     -36.691
  H       -8.162     426.310     -39.956
  H       -5.911     427.355     -40.047
  H       -2.885     425.416     -40.885
  H       -4.463     428.055     -41.006
  H       -2.310     429.171     -40.907
  H       -1.269     427.428     -38.986
  H       -8.453     422.623     -40.010
  H       -3.874     428.951     -38.586
  H       -9.260     424.073     -39.600
  H       -2.799     428.383     -37.290
  P       -0.695     428.120     -42.799
  C        1.409     428.958     -41.528
  O        0.415     429.235     -42.493
  O       -1.958     429.016     -43.215
  O       -0.386     427.139     -43.880
  H       -1.975     429.110     -44.189
  H        2.079     429.816     -41.460
  H        1.995     428.083     -41.821
  H        0.954     428.789     -40.550
  H       -0.042     430.471     -34.849
  H       -0.056     431.874     -35.890
  H        0.242     430.290     -36.564

 3  4  5  6  7  8  9  10  11  12  13  23  27  28  29  30  32 0
 6-311+G(2d,p)
 ****
 34  35 0
 6-311+G(2d,p)
 ****
 1  2  14  15  16  17  18  19  20  21  22  24  25  26 0
 3-21G
 ****
 31  33  36  37  38  39  40  41  42  43  44  45  46 0
 3-21G
 ****


