%nproc=1
%NoSave
%Mem=1900MB
#P OB98/GEN NMR

erre ene a

0 1
  C       19.968     249.377      47.787
  O       18.771     249.525      48.524
  H       19.715     249.082      46.765
  H       20.606     248.606      48.228
  H       20.506     250.329      47.752
  P       18.879     249.704      50.116
  C       17.586     247.528      50.631
  O       18.834     248.214      50.720
  C       17.407     246.564      51.806
  O       18.493     245.617      51.840
  C       17.428     247.244      53.166
  O       16.302     248.056      53.423
  C       17.753     246.091      54.103
  O       16.607     245.357      54.519
  C       18.650     245.198      53.211
  N       20.045     245.230      53.632
  C       20.462     244.171      54.431
  O       19.715     243.261      54.797
  N       21.765     244.209      54.842
  C       22.657     245.207      54.577
  O       23.804     245.204      55.010
  C       22.153     246.313      53.749
  C       20.889     246.275      53.320
  O       17.887     250.639      50.737
  O       20.403     250.139      50.345
  H       16.900     244.740      55.219
  H       20.528     250.533      51.242
  H       22.088     243.444      55.413
  H       22.832     247.124      53.521
  H       20.493     247.083      52.707
  H       18.311     244.154      53.257
  H       18.255     246.441      55.009
  H       18.294     247.915      53.195
  H       16.474     246.007      51.656
  H       17.586     246.959      49.695
  H       16.768     248.255      50.603
  P       16.317     249.272      54.459
  C       15.124     247.794      56.233
  O       16.211     248.668      55.944
  O       15.486     250.464      54.110
  O       17.865     249.729      54.389
  H       17.890     250.698      54.509
  H       15.185     247.474      57.252
  H       15.171     246.941      55.588
  H       14.200     248.310      56.076

 6  7  8  9  10  11  12  13  14  15  16  26  31  32  33  34  35 0
 6-311+G(2d,p)
 ****
 36  37 0
 6-311+G(2d,p)
 ****
 1  2  3  4  5  17  18  19  20  21  22  23  24  25 0
 3-21G
 ****
 27  28  29  30  38  39  40  41  42  43  44  45 0
 3-21G
 ****


