%nproc=1
%NoSave
%Mem=1900MB
#P OB98/GEN NMR

erre ene a

0 1
  C      607.118     504.538     306.080
  O      607.223     505.509     305.066
  P      605.971     506.381     304.599
  C      604.004     506.095     302.946
  O      605.163     505.498     303.517
  C      603.525     505.252     301.745
  O      604.440     505.455     300.630
  C      603.470     503.739     302.053
  O      602.202     503.136     301.752
  C      604.653     503.202     301.278
  O      604.578     501.821     300.984
  C      604.698     504.156     300.072
  N      605.974     504.105     299.349
  C      606.349     502.865     298.817
  O      605.674     501.855     298.886
  N      607.573     502.830     298.214
  C      608.500     503.840     298.200
  O      609.621     503.703     297.731
  C      608.067     505.101     298.826
  C      606.827     505.184     299.350
  O      606.271     507.765     304.141
  O      604.992     506.310     305.872
  H      605.403     501.551     300.535
  H      604.722     505.417     306.134
  H      607.866     501.947     297.814
  H      608.786     505.916     298.841
  H      606.494     506.105     299.817
  H      603.901     503.943     299.363
  H      605.557     503.349     301.885
  H      603.613     503.558     303.124
  H      602.533     505.644     301.461
  H      604.252     507.102     302.604
  H      603.221     506.183     303.700
  P      601.441     502.095     302.710
  C      601.214     499.484     302.640
  O      602.022     500.623     302.429
  O      599.960     502.189     302.698
  O      602.023     502.424     304.172
  H      601.367     502.215     304.847
  H      601.854     498.633     302.895
  H      600.664     499.279     301.711
  H      600.494     499.668     303.452
  H      608.071     504.076     306.232
  H      606.404     503.796     305.790
  H      606.799     505.004     306.989

 3  4  5  6  7  8  9  10  11  12  13  23  28  29  30  31  32 0
 6-311+G(2d,p)
 ****
 33  34 0
 6-311+G(2d,p)
 ****
 1  2  14  15  16  17  18  19  20  21  22  24  25  26  27 0
 3-21G
 ****
 35  36  37  38  39  40  41  42  43  44  45 0
 3-21G
 ****


