%nproc=1
%NoSave
%Mem=1900MB
#P OB98/GEN NMR

erre ene a

0 1
  C     -134.505     241.449    -280.724
  O     -135.562     241.610    -279.801
  P     -136.206     240.396    -278.985
  C     -136.696     241.686    -276.785
  O     -137.234     241.000    -277.909
  C     -137.762     242.463    -275.991
  O     -138.240     243.566    -276.785
  C     -138.975     241.565    -275.721
  O     -138.970     240.672    -274.623
  C     -140.177     242.500    -275.785
  O     -140.614     242.922    -274.490
  C     -139.657     243.696    -276.587
  N     -143.650     245.531    -279.124
  C     -143.224     245.831    -277.844
  N     -144.075     246.562    -277.090
  N     -142.078     245.424    -277.351
  C     -141.387     244.623    -278.195
  C     -141.696     244.270    -279.485
  C     -142.943     244.755    -280.032
  O     -143.401     244.448    -281.132
  N     -140.791     243.380    -280.011
  C     -139.947     243.159    -279.019
  N     -140.289     243.865    -277.883
  O     -135.273     239.308    -278.552
  O     -137.199     239.763    -280.087
  H     -141.461     243.395    -274.601
  H     -137.220     238.796    -279.948
  H     -144.580     245.803    -279.422
  H     -139.106     242.485    -279.064
  H     -139.810     244.632    -276.035
  H     -141.037     241.997    -276.252
  H     -145.018     246.762    -277.384
  H     -139.083     240.910    -276.595
  H     -143.869     246.651    -276.100
  H     -137.330     242.908    -275.088
  H     -135.923     242.362    -277.153
  H     -136.211     240.970    -276.121
  P     -139.633     239.220    -274.577
  C     -138.008     238.510    -272.735
  O     -139.365     238.586    -273.134
  O     -138.706     238.334    -275.541
  O     -141.054     239.160    -275.035
  H     -139.207     237.551    -275.851
  H     -137.913     237.811    -271.904
  H     -137.672     239.497    -272.405
  H     -137.374     238.167    -273.561
  H     -134.247     242.400    -281.141
  H     -134.813     240.788    -281.507
  H     -133.654     241.036    -280.223

 3  4  5  6  7  8  9  10  11  12  23  26  30  31 0
 6-311+G(2d,p)
 ****
 33  35  36  37  38 0
 6-311+G(2d,p)
 ****
 1  2  13  14  15  16  17  18  19  20  21  22  24  25 0
 3-21G
 ****
 27  28  29  32  34  39  40  41  42  43  44  45  46  47  48  49 0
 3-21G
 ****


