%nproc=1
%NoSave
%Mem=1900MB
#P OB98/GEN NMR

erre ene a

0 1
  C      487.397     579.008    -246.879
  O      487.782     579.880    -245.813
  P      486.990     581.257    -245.588
  C      489.158     582.450    -244.800
  O      487.786     582.154    -244.512
  C      489.934     582.633    -243.484
  O      489.313     583.631    -242.637
  C      489.969     581.370    -242.636
  O      490.746     580.291    -243.130
  C      490.334     581.914    -241.272
  O      491.735     582.102    -241.125
  C      489.589     583.266    -241.269
  N      488.362     583.248    -240.465
  C      488.511     583.539    -239.114
  O      489.597     583.763    -238.587
  N      487.354     583.532    -238.370
  C      486.109     583.231    -238.841
  O      485.109     583.225    -238.127
  C      486.016     582.916    -240.271
  C      487.132     582.934    -241.010
  O      485.526     581.121    -245.338
  O      487.261     582.046    -246.960
  H      492.008     582.823    -241.730
  H      486.432     582.496    -247.215
  H      487.442     583.748    -237.390
  H      485.038     582.666    -240.672
  H      487.094     582.698    -242.066
  H      490.236     584.057    -240.859
  H      490.025     581.222    -240.467
  H      488.941     580.981    -242.565
  H      490.947     582.980    -243.728
  H      489.219     583.355    -245.404
  H      489.579     581.635    -245.403
  P      490.200     578.780    -243.206
  C      492.638     577.970    -242.798
  O      491.438     577.820    -243.545
  O      488.925     578.545    -243.940
  O      489.959     578.464    -241.645
  H      489.198     577.852    -241.572
  H      493.373     577.247    -243.172
  H      492.444     577.777    -241.745
  H      493.038     578.977    -242.932
  H      488.029     578.144    -246.879
  H      487.494     579.521    -247.813
  H      486.380     578.706    -246.743

 3  4  5  6  7  8  9  10  11  12  13  23  28  29  30  31  32 0
 6-311+G(2d,p)
 ****
 33  34 0
 6-311+G(2d,p)
 ****
 1  2  14  15  16  17  18  19  20  21  22  24  25  26  27 0
 3-21G
 ****
 35  36  37  38  39  40  41  42  43  44  45 0
 3-21G
 ****


