%nproc=1
%NoSave
%Mem=1900MB
#P OB98/GEN NMR

erre ene a

0 1
  C     -198.768     -58.516     308.419
  O     -197.502     -58.057     307.937
  P     -196.322     -59.140     307.810
  C     -195.339     -59.296     310.231
  O     -196.210     -59.840     309.253
  C     -195.959     -59.394     311.632
  O     -196.218     -60.796     311.956
  C     -195.089     -58.809     312.754
  O     -195.986     -58.188     313.690
  C     -194.449     -60.040     313.372
  O     -194.014     -59.799     314.705
  C     -195.601     -61.050     313.233
  N     -195.150     -62.437     313.346
  C     -195.220     -63.023     314.603
  O     -195.571     -62.407     315.610
  N     -194.835     -64.333     314.678
  C     -194.322     -65.075     313.654
  O     -193.991     -66.248     313.774
  C     -194.162     -64.362     312.371
  C     -194.572     -63.103     312.283
  O     -195.032     -58.201     307.724
  O     -196.512     -60.073     306.659
  H     -195.090     -57.404     308.280
  H     -193.626     -60.622     315.067
  H     -194.915     -64.793     315.575
  H     -193.705     -64.906     311.546
  H     -194.450     -62.545     311.357
  H     -196.358     -60.877     314.006
  H     -193.587     -60.353     312.776
  H     -194.363     -58.073     312.393
  H     -196.927     -58.881     311.603
  H     -195.137     -58.243     310.009
  H     -194.368     -59.826     310.190
  P     -195.984     -56.581     313.789
  C     -194.550     -56.252     315.961
  O     -194.643     -56.164     314.555
  O     -197.115     -56.377     314.917
  O     -196.297     -55.863     312.518
  H     -197.000     -56.956     315.680
  H     -193.504     -56.152     316.259
  H     -194.924     -57.216     316.315
  H     -195.126     -55.443     316.428
  H     -199.455     -57.697     308.453
  H     -198.649     -58.923     309.402
  H     -199.146     -59.272     307.763

 3  4  5  6  7  8  9  10  11  12  13  24  28  29  30  31  32 0
 6-311+G(2d,p)
 ****
 33  34 0
 6-311+G(2d,p)
 ****
 1  2  14  15  16  17  18  19  20  21  22  23  25  26  27 0
 3-21G
 ****
 35  36  37  38  39  40  41  42  43  44  45 0
 3-21G
 ****


