%nproc=1
%NoSave
%Mem=1900MB
#P OB98/GEN NMR

erre ene a

0 1
  C       35.933     547.521       8.456
  O       36.523     547.287       9.718
  H       36.685     547.873       7.745
  H       35.509     546.583       8.084
  H       35.130     548.260       8.546
  P       37.236     548.538      10.426
  C       39.572     547.389      10.379
  O       38.520     547.923      11.172
  C       40.614     546.745      11.290
  O       41.040     547.688      12.300
  C       40.094     545.530      12.052
  O       40.120     544.344      11.274
  C       41.092     545.464      13.196
  O       42.329     544.901      12.726
  C       41.273     546.951      13.534
  N       40.401     547.291      18.569
  C       41.444     546.799      17.862
  N       41.610     546.765      16.525
  C       40.558     547.319      15.901
  C       39.428     547.871      16.485
  C       39.364     547.837      17.890
  N       38.284     548.309      18.610
  N       38.554     548.324      15.518
  C       39.159     548.069      14.375
  N       40.358     547.434      14.552
  O       36.256     548.902      11.636
  O       37.535     549.704       9.544
  H       42.712     545.542      12.094
  H       36.473     549.780      12.000
  H       42.250     546.373      18.455
  H       38.766     548.313      13.393
  H       42.291     547.187      13.873
  H       40.748     544.836      14.023
  H       39.092     545.711      12.464
  H       41.488     546.484      10.687
  H       40.037     548.197       9.807
  H       38.272     548.106      19.597
  H       37.453     548.581      18.113
  H       39.166     546.644       9.688
  P       38.789     543.443      11.248
  C       40.185     541.553      12.352
  O       39.273     541.917      11.323
  O       38.288     543.600       9.735
  O       37.746     543.847      12.235
  H       37.316     543.553       9.685
  H       40.414     540.511      12.274
  H       39.743     541.751      13.306
  H       41.084     542.124      12.250

 6  7  8  9  10  11  12  13  14  15  25  28  32  33  34  35 0
 6-311+G(2d,p)
 ****
 36  39  40 0
 6-311+G(2d,p)
 ****
 1  2  3  4  5  16  17  18  19  20  21  22  23  24 0
 3-21G
 ****
 26  27  29  30  31  37  38  41  42  43  44  45  46  47 0
 3-21G
 ****
 48 0
 3-21G
 ****


