%nproc=1
%NoSave
%Mem=1900MB
#P OB98/GEN NMR

erre ene a

0 1
  C     -176.962     -81.292     280.181
  O     -176.378     -81.386     278.899
  H     -176.797     -82.236     280.708
  H     -178.037     -81.115     280.106
  H     -176.491     -80.487     280.755
  P     -176.579     -80.166     277.879
  C     -174.042     -79.737     277.625
  O     -175.255     -80.096     276.979
  C     -172.832     -80.103     276.756
  O     -172.440     -81.475     277.052
  C     -173.104     -80.022     275.245
  O     -171.866     -79.687     274.603
  C     -173.498     -81.454     274.935
  O     -173.481     -81.706     273.552
  C     -172.493     -82.210     275.808
  N     -172.867     -83.600     276.013
  C     -172.774     -84.441     274.898
  O     -172.402     -83.988     273.816
  N     -173.130     -85.757     275.032
  C     -173.606     -86.185     276.158
  N     -173.954     -87.498     276.219
  C     -173.778     -85.318     277.347
  C     -173.389     -84.052     277.206
  O     -176.990     -78.870     278.490
  O     -177.685     -80.702     276.852
  H     -173.939     -80.987     273.060
  H     -178.543     -80.279     277.041
  H     -174.196     -85.722     278.255
  H     -173.476     -83.341     278.021
  H     -171.491     -82.186     275.365
  H     -174.518     -81.652     275.276
  H     -173.875     -79.290     274.991
  H     -171.989     -79.464     277.041
  H     -173.830     -88.050     275.380
  H     -174.001     -80.282     278.573
  H     -174.351     -87.938     277.036
  H     -174.030     -78.663     277.836
  P     -171.768     -79.306     273.052
  C     -170.954     -76.904     273.529
  O     -170.690     -78.133     272.862
  O     -173.088     -79.024     272.404
  O     -171.065     -80.570     272.358
  H     -171.392     -80.651     271.443
  H     -170.166     -76.210     273.323
  H     -171.012     -77.076     274.584
  H     -171.883     -76.502     273.182

 6  7  8  9  10  11  12  13  14  15  16  26  30  31  32  33  35 0
 6-311+G(2d,p)
 ****
 37  38 0
 6-311+G(2d,p)
 ****
 1  2  3  4  5  17  18  19  20  21  22  23  24  25 0
 3-21G
 ****
 27  28  29  34  36  39  40  41  42  43  44  45  46 0
 3-21G
 ****


