%nproc=1
%NoSave
%Mem=1900MB
#P OB98/GEN NMR

erre ene a

0 1
  C        4.702    -276.323      39.594
  O        5.016    -277.194      40.662
  H        4.033    -276.843      38.902
  H        5.618    -276.058      39.061
  H        4.205    -275.419      39.957
  P        5.647    -276.539      41.984
  C        8.076    -276.066      42.774
  O        7.209    -276.299      41.674
  C        9.537    -276.101      42.320
  O        9.862    -277.466      41.904
  C        9.849    -275.167      41.136
  O       11.164    -274.626      41.305
  C        9.883    -276.122      39.952
  O       10.650    -275.615      38.866
  C       10.485    -277.364      40.607
  N       11.844    -279.596      36.319
  C       12.376    -278.502      36.969
  N       13.393    -277.858      36.357
  N       11.942    -278.067      38.125
  C       10.936    -278.814      38.638
  C       10.317    -279.914      38.095
  C       10.791    -280.376      36.804
  O       10.345    -281.327      36.171
  N        9.291    -280.348      38.899
  C        9.277    -279.500      39.919
  N       10.257    -278.551      39.801
  O        5.651    -277.767      43.014
  O        4.916    -275.357      42.524
  H       10.681    -276.300      38.166
  H        4.848    -277.734      43.571
  H       12.198    -279.880      35.422
  H        8.578    -279.521      40.736
  H       11.570    -277.280      40.752
  H        8.865    -276.319      39.598
  H       13.798    -278.151      35.480
  H        9.126    -274.354      41.005
  H       13.822    -277.075      36.840
  H       10.178    -275.867      43.177
  H        7.917    -276.845      43.528
  H        7.841    -275.093      43.219
  P       11.293    -273.113      41.828
  C       10.312    -270.782      41.200
  O       10.393    -272.167      40.895
  O       12.788    -272.715      41.415
  O       11.070    -272.960      43.300
  H       13.167    -272.113      42.083
  H        9.678    -270.297      40.488
  H       11.290    -270.350      41.159
  H        9.907    -270.656      42.182

 6  7  8  9  10  11  12  13  14  15  26  29  33  34 0
 6-311+G(2d,p)
 ****
 36  38  39  40  41 0
 6-311+G(2d,p)
 ****
 1  2  3  4  5  16  17  18  19  20  21  22  23  24  25 0
 3-21G
 ****
 27  28  30  31  32  35  37  42  43  44  45  46  47 0
 3-21G
 ****
 48  49 0
 3-21G
 ****


