%nproc=1
%NoSave
%Mem=1900MB
#P OB98/GEN NMR

erre ene a

0 1
  C     -216.297     660.952     351.759
  O     -216.529     661.774     352.886
  H     -216.988     660.108     351.798
  H     -215.273     660.566     351.780
  H     -216.472     661.511     350.834
  P     -215.622     663.082     353.113
  C     -216.506     665.408     352.478
  O     -216.663     664.292     353.340
  C     -217.735     666.315     352.521
  O     -218.733     665.813     351.585
  C     -218.401     666.398     353.900
  O     -218.679     667.761     354.234
  C     -219.711     665.643     353.727
  O     -220.714     666.033     354.654
  C     -220.011     665.941     352.250
  N     -221.021     665.034     351.696
  C     -222.322     665.551     351.601
  O     -222.558     666.703     351.979
  N     -223.316     664.731     351.156
  C     -223.058     663.490     350.870
  N     -224.098     662.718     350.459
  C     -221.699     662.905     350.975
  C     -220.740     663.722     351.386
  O     -214.599     663.321     352.051
  O     -214.979     662.883     354.566
  H     -220.781     667.007     354.650
  H     -214.163     663.435     354.636
  H     -221.536     661.864     350.729
  H     -219.722     663.388     351.500
  H     -220.362     666.975     352.119
  H     -219.525     664.566     353.852
  H     -217.792     665.956     354.699
  H     -217.449     667.312     352.153
  H     -225.010     663.158     350.398
  H     -216.330     665.039     351.451
  H     -224.021     661.742     350.227
  H     -215.624     665.979     352.803
  P     -217.824     668.386     355.449
  C     -217.048     670.753     356.191
  O     -217.813     669.984     355.276
  O     -216.325     667.949     355.119
  O     -218.258     667.898     356.789
  H     -216.033     667.272     355.760
  H     -217.140     671.791     355.949
  H     -216.020     670.462     356.129
  H     -217.407     670.586     357.185

 6  7  8  9  10  11  12  13  14  15  16  26  30  31  32  33  35 0
 6-311+G(2d,p)
 ****
 37  38 0
 6-311+G(2d,p)
 ****
 1  2  3  4  5  17  18  19  20  21  22  23  24  25 0
 3-21G
 ****
 27  28  29  34  36  39  40  41  42  43  44  45  46 0
 3-21G
 ****


