%nproc=1
%NoSave
%Mem=1900MB
#P OB98/GEN NMR

erre ene a

0 1
  C       54.660     -56.572     -73.777
  O       53.510     -56.521     -74.598
  H       54.956     -55.551     -73.522
  H       55.483     -57.054     -74.312
  H       54.443     -57.119     -72.856
  P       52.955     -57.929     -75.131
  C       54.695     -58.013     -77.051
  O       54.181     -58.641     -75.885
  C       56.204     -58.220     -77.147
  O       56.850     -57.860     -75.907
  C       56.622     -59.653     -77.461
  O       56.568     -59.903     -78.855
  C       58.043     -59.672     -76.915
  O       58.963     -59.061     -77.847
  C       57.910     -58.820     -75.645
  N       59.810     -61.957     -72.176
  C       60.380     -61.451     -73.327
  N       61.635     -61.862     -73.613
  N       59.772     -60.624     -74.135
  C       58.503     -60.344     -73.756
  C       57.824     -60.783     -72.642
  C       58.530     -61.656     -71.728
  O       58.109     -62.072     -70.653
  N       56.556     -60.262     -72.596
  C       56.458     -59.539     -73.696
  N       57.612     -59.562     -74.435
  O       51.977     -57.514     -76.331
  O       52.243     -58.762     -74.121
  H       59.863     -59.377     -77.657
  H       51.203     -58.108     -76.324
  H       60.336     -62.566     -71.576
  H       55.583     -58.977     -73.993
  H       58.822     -58.246     -75.442
  H       58.399     -60.690     -76.755
  H       62.031     -62.696     -73.206
  H       56.010     -60.373     -76.905
  H       62.022     -61.547     -74.494
  H       56.581     -57.533     -77.916
  H       54.478     -56.941     -76.999
  H       54.206     -58.435     -77.933
  P       56.070     -61.345     -79.346
  C       58.465     -62.347     -79.331
  O       57.135     -62.435     -78.841
  O       56.314     -61.287     -80.928
  O       54.644     -61.650     -79.037
  H       55.462     -61.179     -81.391
  H       59.054     -63.135     -78.909
  H       58.884     -61.402     -79.056
  H       58.459     -62.438     -80.397

 6  7  8  9  10  11  12  13  14  15  26  29  33  34 0
 6-311+G(2d,p)
 ****
 36  38  39  40  41 0
 6-311+G(2d,p)
 ****
 1  2  3  4  5  16  17  18  19  20  21  22  23  24  25 0
 3-21G
 ****
 27  28  30  31  32  35  37  42  43  44  45  46  47 0
 3-21G
 ****
 48  49 0
 3-21G
 ****


