%nproc=1
%NoSave
%Mem=1900MB
#P OB98/GEN NMR

erre ene a

0 1
  C     -899.319    -521.671    1872.122
  O     -898.189    -521.131    1872.816
  P     -897.299    -520.034    1872.073
  C     -895.859    -518.928    1873.940
  O     -896.999    -518.842    1873.101
  C     -896.279    -518.912    1875.417
  O     -897.129    -520.025    1875.738
  C     -895.109    -518.998    1876.377
  O     -894.519    -517.720    1876.590
  C     -895.789    -519.463    1877.649
  O     -896.439    -518.340    1878.298
  C     -896.839    -520.438    1877.106
  N     -895.169    -524.192    1880.059
  C     -895.559    -522.898    1880.382
  N     -895.499    -522.573    1881.686
  N     -895.969    -522.028    1879.498
  C     -895.999    -522.503    1878.246
  C     -895.649    -523.747    1877.792
  C     -895.169    -524.712    1878.778
  O     -894.809    -525.858    1878.535
  N     -895.799    -523.853    1876.445
  C     -896.269    -522.683    1876.084
  N     -896.399    -521.817    1877.117
  O     -898.339    -519.371    1871.053
  O     -896.099    -520.596    1871.369
  H     -897.049    -517.965    1877.635
  H     -897.859    -519.037    1870.258
  H     -894.859    -524.818    1880.776
  H     -896.539    -522.425    1875.051
  H     -897.789    -520.394    1877.653
  H     -895.089    -519.883    1878.373
  H     -895.239    -523.212    1882.423
  H     -894.369    -519.739    1876.039
  H     -895.809    -521.644    1881.948
  H     -896.839    -517.981    1875.602
  H     -895.189    -518.081    1873.726
  H     -895.299    -519.827    1873.682
  P     -893.379    -517.223    1875.550
  C     -893.909    -514.910    1874.463
  O     -894.139    -516.319    1874.471
  O     -893.039    -518.559    1874.745
  O     -892.179    -516.629    1876.187
  H     -892.099    -518.558    1874.471
  H     -894.379    -514.485    1873.586
  H     -892.829    -514.714    1874.421
  H     -894.349    -514.448    1875.361
  H     -899.811    -522.388    1872.745
  H     -898.991    -522.147    1871.222
  H     -900.000    -520.882    1871.880

 3  4  5  6  7  8  9  10  11  12  23  26  30  31 0
 6-311+G(2d,p)
 ****
 33  35  36  37  38 0
 6-311+G(2d,p)
 ****
 1  2  13  14  15  16  17  18  19  20  21  22  24  25 0
 3-21G
 ****
 27  28  29  32  34  39  40  41  42  43  44  45  46  47  48  49 0
 3-21G
 ****


