%nproc=1
%NoSave
%Mem=1900MB
#P OB98/GEN NMR

erre ene a

0 1
  C       40.226     -55.924     189.025
  O       39.112     -56.793     188.880
  P       38.360     -56.809     187.464
  C       39.081     -57.414     185.054
  O       39.497     -56.986     186.344
  C       39.711     -56.555     183.965
  O       39.061     -55.253     183.958
  C       41.219     -56.316     184.145
  O       41.873     -56.454     182.874
  C       41.302     -54.853     184.545
  O       42.559     -54.276     184.208
  C       40.113     -54.285     183.772
  N       40.930     -49.328     183.268
  C       41.377     -50.378     182.496
  N       42.208     -50.063     181.474
  N       41.046     -51.625     182.699
  C       40.186     -51.789     183.735
  C       39.667     -50.828     184.568
  C       40.089     -49.459     184.365
  O       39.798     -48.494     185.073
  N       38.813     -51.378     185.491
  C       38.819     -52.668     185.220
  N       39.677     -52.973     184.193
  O       37.889     -55.288     187.293
  O       37.204     -57.744     187.367
  H       42.641     -53.448     184.719
  H       36.922     -55.255     187.155
  H       41.229     -48.387     183.076
  H       38.252     -53.416     185.757
  H       40.343     -54.232     182.700
  H       41.156     -54.768     185.628
  H       42.472     -49.121     181.237
  H       41.695     -56.974     184.878
  H       42.528     -50.819     180.880
  H       39.507     -57.018     182.993
  H       37.991     -57.338     184.986
  H       39.369     -58.462     184.921
  P       43.413     -56.909     182.922
  C       44.606     -58.967     183.987
  O       43.479     -58.111     183.979
  O       44.134     -55.698     183.677
  O       44.005     -57.181     181.581
  H       45.080     -55.661     183.436
  H       45.410     -58.596     183.343
  H       44.303     -59.956     183.638
  H       44.981     -59.050     185.011
  H       40.625     -56.018     190.013
  H       39.914     -54.914     188.861
  H       40.978     -56.186     188.310

 3  4  5  6  7  8  9  10  11  12  23  26  30  31  33  0
 6-311+G(2d,p)
 ****
 35  36  37  38 0
 6-311+G(2d,p)
 ****
 1  2  13  14  15  16  17  18  19  20  21  22  24  25  27  28  29 0
 3-21G
 ****
 32  34  39  40  41  42  43  44  45  46  47  48  49 0
 3-21G
 ****


