%nproc=1
%NoSave
%Mem=1900MB
#P OB98/GEN NMR

erre ene a

0 1
  C       78.781      98.167       8.132
  O       78.713      99.286       7.277
  P       77.349      99.648       6.516
  C       75.947      98.396       4.758
  O       77.253      98.649       5.263
  C       76.019      97.450       3.563
  O       76.620      98.104       2.414
  C       76.893      96.225       3.793
  O       76.456      95.289       4.754
  C       77.079      95.722       2.371
  O       75.953      94.963       1.933
  C       77.174      97.055       1.583
  N       78.546      97.352       1.178
  C       79.183      96.373       0.423
  O       78.655      95.311       0.099
  N       80.479      96.639       0.071
  C       81.197      97.743       0.431
  O       82.372      97.896       0.118
  C       80.476      98.733       1.242
  C       79.203      98.500       1.575
  O       77.177     101.090       6.174
  O       76.218      99.074       7.494
  H       75.909      94.158       2.484
  H       76.271      98.115       7.658
  H       80.965      95.938      -0.466
  H       81.014      99.627       1.534
  H       78.651      99.216       2.174
  H       76.553      97.008       0.680
  H       77.958      95.076       2.280
  H       77.875      96.568       4.143
  H       75.001      97.174       3.280
  H       75.501      99.343       4.436
  H       75.319      97.984       5.556
  P       77.454      94.351       5.586
  C       78.746      92.143       5.168
  O       77.745      93.032       4.722
  O       77.150      94.171       7.037
  O       78.841      95.150       5.442
  H       79.378      95.002       6.242
  H       78.840      91.331       4.442
  H       78.473      91.714       6.137
  H       79.710      92.655       5.244
  H       79.766      98.092       8.543
  H       78.558      97.280       7.577
  H       78.071      98.280       8.925

 3  4  5  6  7  8  9  10  11  12  13  23  28  29  30  31  32 0
 6-311+G(2d,p)
 ****
 33  34 0
 6-311+G(2d,p)
 ****
 1  2  14  15  16  17  18  19  20  21  22  24  25  26  27 0
 3-21G
 ****
 35  36  37  38  39  40  41  42  43  44  45 0
 3-21G
 ****


