%nproc=1
%NoSave
%Mem=1900MB
#P OB98/GEN NMR

erre ene a

0 1
  C       13.233     131.124     -17.014
  O       13.992     130.833     -15.850
  P       14.284     131.965     -14.746
  C       13.655     130.434     -12.761
  O       13.325     131.593     -13.516
  C       12.397     129.606     -12.508
  O       11.885     129.107     -13.762
  C       12.612     128.379     -11.633
  O       12.731     128.740     -10.263
  C       11.384     127.547     -11.990
  O       10.235     128.026     -11.277
  C       11.232     127.845     -13.499
  N       11.771     126.782     -14.342
  C       11.308     125.489     -14.090
  O       10.483     125.271     -13.201
  N       11.770     124.461     -14.878
  C       12.634     124.702     -15.816
  N       13.001     123.655     -16.608
  C       13.188     126.039     -16.079
  C       12.713     127.024     -15.317
  O       14.149     133.367     -15.237
  O       15.731     131.610     -14.180
  H        9.514     127.389     -11.447
  H       16.468     132.030     -14.691
  H       13.916     126.190     -16.866
  H       13.055     128.044     -15.460
  H       10.172     127.989     -13.746
  H       11.499     126.480     -11.765
  H       13.522     127.846     -11.941
  H       11.636     130.261     -12.063
  H       12.466     122.799     -16.507
  H       14.076     130.749     -11.800
  H       13.427     123.805     -17.515
  H       14.406     129.852     -13.305
  P       14.012     128.202      -9.463
  C       14.845     130.639      -9.153
  O       15.138     129.337      -9.622
  O       14.534     126.991     -10.372
  O       13.728     127.775      -8.061
  H       14.251     126.137      -9.991
  H       15.773     131.214      -9.115
  H       14.412     130.603      -8.148
  H       14.151     131.137      -9.840
  H       13.153     130.244     -17.617
  H       13.719     131.896     -17.573
  H       12.255     131.451     -16.729

 3  4  5  6  7  8  9  10  11  12  13  23  27  28  29  30  32 0
 6-311+G(2d,p)
 ****
 34  35 0
 6-311+G(2d,p)
 ****
 1  2  14  15  16  17  18  19  20  21  22  24  25  26 0
 3-21G
 ****
 31  33  36  37  38  39  40  41  42  43  44  45  46 0
 3-21G
 ****


