%nproc=1
%NoSave
%Mem=1900MB
#P OB98/GEN NMR

erre ene a

0 1
  C     -179.314     184.003    1077.627
  O     -178.817     185.287    1077.333
  H     -178.662     183.536    1078.374
  H     -179.316     183.374    1076.730
  H     -180.324     184.065    1078.042
  P     -179.560     186.162    1076.210
  C     -180.911     187.375    1078.053
  O     -180.960     186.626    1076.839
  C     -182.277     187.354    1078.748
  O     -183.219     188.052    1077.887
  C     -182.800     185.927    1078.981
  O     -183.174     185.695    1080.341
  C     -183.862     185.770    1077.905
  O     -184.872     184.830    1078.219
  C     -184.364     187.202    1077.681
  N     -184.947     187.429    1076.371
  C     -186.125     186.746    1076.062
  O     -186.717     185.977    1076.820
  N     -186.641     186.983    1074.812
  C     -186.092     187.803    1073.857
  O     -186.599     187.968    1072.755
  C     -184.833     188.465    1074.232
  C     -184.324     188.256    1075.455
  O     -179.661     185.532    1074.865
  O     -178.717     187.525    1076.163
  H     -185.594     184.947    1077.561
  H     -178.165     187.537    1075.355
  H     -187.497     186.514    1074.590
  H     -184.371     189.115    1073.501
  H     -183.404     188.737    1075.760
  H     -185.119     187.460    1078.433
  H     -183.376     185.412    1076.984
  H     -182.000     185.196    1078.815
  H     -182.199     187.915    1079.687
  H     -180.624     188.403    1077.801
  H     -180.153     186.940    1078.717
  P     -182.565     184.551    1081.278
  C     -181.847     185.880    1083.432
  O     -181.469     185.210    1082.232
  O     -182.182     183.274    1080.590
  O     -183.771     184.211    1082.291
  H     -183.695     183.261    1082.511
  H     -180.972     186.249    1083.925
  H     -182.358     185.196    1084.077
  H     -182.494     186.698    1083.195

 6  7  8  9  10  11  12  13  14  15  16  26  31  32  33  34  35 0
 6-311+G(2d,p)
 ****
 36  37 0
 6-311+G(2d,p)
 ****
 1  2  3  4  5  17  18  19  20  21  22  23  24  25 0
 3-21G
 ****
 27  28  29  30  38  39  40  41  42  43  44  45 0
 3-21G
 ****


