%nproc=1
%NoSave
%Mem=1900MB
#P OB98/GEN NMR

erre ene a

0 1
  C      182.374     -34.464    -139.923
  O      182.433     -33.554    -141.021
  P      183.816     -32.794    -141.311
  C      185.121     -30.779    -140.361
  O      183.883     -31.484    -140.387
  C      185.047     -29.591    -139.384
  O      184.089     -28.626    -139.890
  C      184.576     -29.948    -137.971
  O      185.551     -30.333    -137.008
  C      184.009     -28.607    -137.499
  O      185.075     -27.773    -137.007
  C      183.428     -27.995    -138.771
  N      178.900     -26.837    -136.678
  C      180.165     -26.500    -136.340
  N      181.316     -26.851    -136.949
  C      181.072     -27.620    -138.024
  C      179.837     -28.043    -138.491
  C      178.710     -27.621    -137.766
  N      177.421     -27.972    -138.105
  N      179.984     -28.829    -139.617
  C      181.288     -28.896    -139.811
  N      181.987     -28.171    -138.885
  O      184.157     -32.586    -142.747
  O      184.890     -33.758    -140.608
  H      185.786     -27.808    -137.675
  H      185.702     -33.777    -141.151
  H      180.266     -25.866    -135.461
  H      181.766     -29.452    -140.607
  H      183.621     -26.916    -138.843
  H      183.296     -28.721    -136.679
  H      183.773     -30.696    -138.002
  H      186.031     -29.103    -139.339
  H      185.354     -30.414    -141.365
  H      176.674     -27.663    -137.503
  H      177.267     -28.603    -138.876
  H      185.903     -31.493    -140.094
  P      185.560     -31.803    -136.371
  C      184.254     -32.883    -134.373
  O      184.380     -31.810    -135.284
  O      186.880     -32.264    -135.855
  O      184.960     -32.699    -137.556
  H      184.022     -32.535    -137.747
  H      183.539     -32.599    -133.595
  H      185.213     -33.113    -133.906
  H      183.870     -33.766    -134.899
  H      181.393     -34.886    -139.862
  H      182.595     -33.942    -139.015
  H      183.090     -35.246    -140.069

 3  4  5  6  7  8  9  10  11  12  22  25  29  30  31  32 0
 6-311+G(2d,p)
 ****
 33  36  37 0
 6-311+G(2d,p)
 ****
 1  2  13  14  15  16  17  18  19  20  21  23  24  26 0
 3-21G
 ****
 27  28  34  35  38  39  40  41  42  43  44  45  46  47  48 0
 3-21G
 ****


