%nproc=1
%NoSave
%Mem=1900MB
#P OB98/GEN NMR

erre ene a

0 1
  C       76.910      19.552     215.291
  O       76.349      20.289     214.215
  P       77.106      21.626     213.746
  C       75.612      23.075     215.286
  O       76.938      22.685     214.941
  C       75.536      24.579     215.538
  O       76.194      24.876     216.804
  C       76.213      25.438     214.453
  O       75.372      26.564     214.149
  C       77.460      25.967     215.140
  O       77.912      27.191     214.569
  C       76.955      26.084     216.580
  N       80.410      29.236     218.494
  C       79.353      29.497     217.652
  N       79.230      30.772     217.213
  N       78.484      28.595     217.266
  C       78.712      27.372     217.811
  C       79.723      26.989     218.663
  C       80.711      27.984     219.030
  O       81.718      27.794     219.702
  N       79.609      25.664     219.010
  C       78.537      25.245     218.364
  N       77.983      26.232     217.586
  O       76.148      22.191     212.596
  O       78.498      21.431     213.244
  H       78.644      27.512     215.132
  H       76.659      22.307     211.770
  H       81.061      29.959     218.745
  H       78.143      24.234     218.406
  H       76.270      26.939     216.673
  H       78.261      25.223     215.056
  H       79.839      31.522     217.499
  H       76.450      24.894     213.532
  H       78.442      30.986     216.615
  H       74.482      24.861     215.654
  H       75.308      22.541     216.191
  H       74.940      22.795     214.466
  P       75.222      26.931     212.593
  C       76.760      29.028     212.780
  O       76.547      27.751     212.208
  O       74.064      28.038     212.585
  O       74.898      25.758     211.723
  H       73.620      28.062     211.715
  H       76.044      29.249     213.577
  H       76.668      29.786     212.002
  H       77.771      29.064     213.196
  H       76.303      18.694     215.491
  H       76.952      20.170     216.163
  H       77.899      19.236     215.030

 3  4  5  6  7  8  9  10  11  12  23  26  30  31  33  0
 6-311+G(2d,p)
 ****
 35  36  37  38 0
 6-311+G(2d,p)
 ****
 1  2  13  14  15  16  17  18  19  20  21  22  24  25  27  28  29 0
 3-21G
 ****
 32  34  39  40  41  42  43  44  45  46  47  48  49 0
 3-21G
 ****


