%nproc=1
%NoSave
%Mem=1900MB
#P OB98/GEN NMR

erre ene a

0 1
  C      555.202     -85.895    -116.581
  O      554.042     -85.102    -116.423
  H      554.952     -86.931    -116.340
  H      555.996     -85.560    -115.909
  H      555.546     -85.851    -117.617
  P      554.169     -83.511    -116.560
  C      551.721     -83.408    -117.360
  O      552.680     -82.924    -116.428
  C      550.978     -84.618    -116.793
  O      550.443     -84.262    -115.490
  C      549.818     -85.094    -117.672
  O      549.763     -86.520    -117.615
  C      548.610     -84.488    -116.984
  O      547.426     -85.198    -117.288
  C      549.026     -84.515    -115.510
  N      548.279     -83.528    -114.733
  C      546.894     -83.714    -114.647
  O      546.364     -84.681    -115.199
  N      546.134     -82.775    -114.003
  C      546.697     -81.708    -113.528
  N      545.883     -80.796    -112.933
  C      548.151     -81.454    -113.617
  C      548.872     -82.392    -114.224
  O      554.934     -83.011    -117.738
  O      554.856     -83.068    -115.183
  H      546.665     -84.773    -116.836
  H      555.826     -83.058    -115.282
  H      548.569     -80.545    -113.211
  H      549.945     -82.288    -114.346
  H      548.854     -85.508    -115.077
  H      548.475     -83.451    -117.319
  H      549.905     -84.762    -118.713
  H      551.701     -85.426    -116.625
  H      544.889     -81.003    -112.917
  H      552.257     -83.700    -118.269
  H      546.196     -79.912    -112.568
  H      551.012     -82.613    -117.608
  P      550.627     -87.411    -118.632
  C      551.554     -89.340    -117.230
  O      550.558     -88.950    -118.171
  O      552.008     -86.903    -118.891
  O      549.761     -87.397    -119.984
  H      550.361     -87.475    -120.748
  H      551.428     -90.374    -116.985
  H      551.458     -88.749    -116.343
  H      552.524     -89.190    -117.655

 6  7  8  9  10  11  12  13  14  15  16  26  30  31  32  33  35 0
 6-311+G(2d,p)
 ****
 37  38 0
 6-311+G(2d,p)
 ****
 1  2  3  4  5  17  18  19  20  21  22  23  24  25 0
 3-21G
 ****
 27  28  29  34  36  39  40  41  42  43  44  45  46 0
 3-21G
 ****


