%nproc=1
%NoSave
%Mem=1900MB
#P OB98/GEN NMR

erre ene a

0 1
  C       78.890     -56.609    -101.118
  O       78.127     -57.607    -100.477
  H       79.605     -57.090    -101.791
  H       79.446     -56.029    -100.377
  H       78.246     -55.946    -101.703
  P       76.904     -57.125     -99.557
  C       74.503     -58.034     -99.167
  O       75.841     -58.330     -99.539
  C       73.522     -58.779    -100.072
  O       73.693     -58.308    -101.435
  C       73.716     -60.297    -100.072
  O       72.431     -60.922    -100.132
  C       74.469     -60.564    -101.362
  O       74.272     -61.890    -101.850
  C       73.926     -59.456    -102.273
  N       74.853     -59.154    -103.360
  C       74.690     -59.878    -104.544
  O       73.803     -60.730    -104.632
  N       75.565     -59.666    -105.577
  C       76.570     -58.865    -105.413
  N       77.421     -58.719    -106.465
  C       76.822     -58.130    -104.158
  C       75.928     -58.314    -103.186
  O       76.182     -56.015    -100.452
  O       77.281     -56.612     -98.208
  H       73.313     -62.098    -101.797
  H       75.776     -55.322     -99.898
  H       77.688     -57.493    -104.060
  H       76.034     -57.823    -102.226
  H       72.961     -59.751    -102.706
  H       75.544     -60.425    -101.194
  H       74.257     -60.662     -99.195
  H       72.502     -58.515     -99.769
  H       77.225     -59.253    -107.302
  H       74.335     -56.957     -99.271
  H       78.259     -58.157    -106.434
  H       74.346     -58.316     -98.121
  P       71.995     -61.797     -98.861
  C       69.738     -62.956     -98.304
  O       70.737     -62.697     -99.282
  O       71.371     -60.714     -97.863
  O       73.125     -62.542     -98.231
  H       71.972     -60.571     -97.109
  H       68.969     -63.565     -98.732
  H       69.316     -62.031     -97.971
  H       70.177     -63.467     -97.473

 6  7  8  9  10  11  12  13  14  15  16  26  30  31  32  33  35 0
 6-311+G(2d,p)
 ****
 37  38 0
 6-311+G(2d,p)
 ****
 1  2  3  4  5  17  18  19  20  21  22  23  24  25 0
 3-21G
 ****
 27  28  29  34  36  39  40  41  42  43  44  45  46 0
 3-21G
 ****


