%nproc=1
%NoSave
%Mem=1900MB
#P OB98/GEN NMR

erre ene a

0 1
  C       97.077     251.105    -290.330
  O       96.461     252.358    -290.103
  H       96.311     250.329    -290.320
  H       97.802     250.898    -289.537
  H       97.576     251.097    -291.304
  P       97.390     253.658    -290.257
  C       97.501     253.430    -292.871
  O       98.188     253.459    -291.632
  C       98.322     254.126    -293.962
  O       99.497     253.321    -294.242
  C       97.562     254.319    -295.273
  O       97.976     255.559    -295.856
  C       98.057     253.170    -296.136
  O       97.900     253.437    -297.529
  C       99.512     253.039    -295.655
  N      100.072     251.721    -295.937
  C      100.893     251.613    -297.061
  O      101.101     252.597    -297.776
  N      101.423     250.391    -297.386
  C      101.109     249.344    -296.681
  N      101.650     248.159    -297.064
  C      100.213     249.404    -295.509
  C       99.748     250.612    -295.191
  O       98.498     253.404    -289.131
  O       96.662     254.958    -290.126
  H       98.315     254.302    -297.729
  H       98.834     252.493    -289.118
  H       99.975     248.507    -294.958
  H       99.090     250.747    -294.342
  H      100.147     253.794    -296.140
  H       97.498     252.258    -295.904
  H       96.480     254.316    -295.144
  H       98.681     255.084    -293.568
  H      102.238     248.161    -297.887
  H       96.528     253.926    -292.779
  H      101.433     247.275    -296.628
  H       97.326     252.384    -293.137
  P       97.027     256.847    -295.726
  C       98.281     258.220    -293.928
  O       97.136     257.435    -294.241
  O       95.641     256.682    -296.252
  O       97.819     257.949    -296.589
  H       97.159     258.456    -297.102
  H       98.223     258.545    -292.910
  H       98.316     259.073    -294.573
  H       99.165     257.632    -294.065

 6  7  8  9  10  11  12  13  14  15  16  26  30  31  32  33  35 0
 6-311+G(2d,p)
 ****
 37  38 0
 6-311+G(2d,p)
 ****
 1  2  3  4  5  17  18  19  20  21  22  23  24  25 0
 3-21G
 ****
 27  28  29  34  36  39  40  41  42  43  44  45  46 0
 3-21G
 ****


