%nproc=1
%NoSave
%Mem=1900MB
#P OB98/GEN NMR

erre ene a

0 1
  C     -701.735     -75.922    -154.083
  O     -702.060     -75.980    -155.454
  P     -700.910     -76.214    -156.554
  C     -702.737     -75.490    -158.219
  O     -701.668     -76.391    -157.962
  C     -702.918     -75.308    -159.723
  O     -701.769     -74.647    -160.311
  C     -703.033     -76.617    -160.496
  O     -704.175     -77.411    -160.266
  C     -702.803     -76.133    -161.923
  O     -703.998     -75.578    -162.482
  C     -701.742     -75.029    -161.710
  N     -700.409     -75.464    -162.127
  C     -700.255     -75.748    -163.475
  O     -701.166     -75.656    -164.298
  N     -699.012     -76.189    -163.857
  C     -697.952     -76.408    -163.027
  O     -696.880     -76.844    -163.429
  C     -698.176     -76.098    -161.609
  C     -699.375     -75.651    -161.223
  O     -699.933     -77.293    -156.235
  O     -700.250     -74.762    -156.710
  H     -703.815     -75.379    -163.420
  H     -700.865     -74.062    -157.001
  H     -698.886     -76.419    -164.832
  H     -697.349     -76.248    -160.928
  H     -699.569     -75.413    -160.178
  H     -702.001     -74.130    -162.286
  H     -702.488     -76.950    -162.580
  H     -702.179     -77.246    -160.236
  H     -703.784     -74.662    -159.891
  H     -702.506     -74.525    -157.770
  H     -703.655     -75.871    -157.751
  P     -704.118     -78.824    -159.514
  C     -705.482     -80.143    -161.288
  O     -705.403     -79.679    -159.953
  O     -703.775     -78.804    -158.060
  O     -702.941     -79.571    -160.314
  H     -702.476     -80.178    -159.705
  H     -706.436     -80.659    -161.417
  H     -704.673     -80.838    -161.497
  H     -705.450     -79.299    -161.984
  H     -702.625     -75.762    -153.512
  H     -701.052     -75.117    -153.912
  H     -701.281     -76.844    -153.785

 3  4  5  6  7  8  9  10  11  12  13  23  28  29  30  31  32 0
 6-311+G(2d,p)
 ****
 33  34 0
 6-311+G(2d,p)
 ****
 1  2  14  15  16  17  18  19  20  21  22  24  25  26  27 0
 3-21G
 ****
 35  36  37  38  39  40  41  42  43  44  45 0
 3-21G
 ****


