%nproc=1
%NoSave
%Mem=1900MB
#P OB98/GEN NMR

erre ene a

0 1
  C      301.064    -152.982     456.477
  O      299.835    -152.867     455.788
  H      300.891    -153.530     457.408
  H      301.466    -151.996     456.719
  H      301.785    -153.542     455.875
  P      299.797    -152.004     454.439
  C      299.667    -154.050     452.866
  O      299.018    -152.887     453.353
  C      298.683    -154.943     452.096
  O      297.682    -155.452     453.022
  C      297.932    -154.210     450.972
  O      297.643    -155.174     449.951
  C      296.663    -153.787     451.688
  O      295.670    -153.380     450.778
  C      296.391    -155.038     452.528
  N      295.446    -154.793     453.606
  C      294.098    -154.751     453.246
  O      293.763    -154.903     452.071
  N      293.162    -154.507     454.221
  C      293.547    -154.259     455.433
  N      292.572    -154.010     456.344
  C      294.966    -154.235     455.841
  C      295.854    -154.512     454.889
  O      301.106    -151.456     453.979
  O      298.757    -150.828     454.763
  H      296.033    -152.735     450.132
  H      299.239    -149.996     454.917
  H      295.235    -154.002     456.861
  H      296.920    -154.518     455.092
  H      296.002    -155.851     451.903
  H      296.858    -152.932     452.340
  H      298.500    -153.375     450.552
  H      299.229    -155.811     451.706
  H      291.612    -154.025     456.020
  H      300.062    -154.593     453.732
  H      292.752    -153.783     457.314
  H      300.503    -153.775     452.215
  P      297.848    -154.879     448.389
  C      299.946    -156.278     447.844
  O      298.534    -156.151     447.695
  O      298.535    -153.583     448.103
  O      296.370    -154.873     447.769
  H      296.343    -154.258     447.014
  H      300.280    -157.160     447.339
  H      300.190    -156.347     448.883
  H      300.428    -155.421     447.421

 6  7  8  9  10  11  12  13  14  15  16  26  30  31  32  33  35 0
 6-311+G(2d,p)
 ****
 37  38 0
 6-311+G(2d,p)
 ****
 1  2  3  4  5  17  18  19  20  21  22  23  24  25 0
 3-21G
 ****
 27  28  29  34  36  39  40  41  42  43  44  45  46 0
 3-21G
 ****


