%nproc=1
%NoSave
%Mem=1900MB
#P OB98/GEN NMR

erre ene a

0 1
  C     -142.257     319.119     -80.266
  O     -141.534     318.394     -81.275
  P     -140.019     317.948     -80.983
  C     -138.724     320.037     -81.882
  O     -139.128     319.266     -80.761
  C     -138.347     321.455     -81.438
  O     -139.500     322.144     -80.906
  C     -137.305     321.505     -80.326
  O     -135.998     321.253     -80.811
  C     -137.494     322.925     -79.805
  O     -136.780     323.873     -80.616
  C     -139.017     323.119     -79.956
  N     -139.728     323.023     -78.685
  C     -140.100     324.225     -78.093
  O     -139.811     325.324     -78.560
  N     -140.796     324.123     -76.917
  C     -141.086     322.962     -76.256
  O     -141.694     322.935     -75.195
  C     -140.594     321.729     -76.887
  C     -139.943     321.818     -78.051
  O     -139.529     317.461     -82.430
  O     -139.844     316.862     -79.973
  H     -136.824     324.730     -80.148
  H     -138.833     316.786     -82.329
  H     -141.101     324.979     -76.488
  H     -140.781     320.790     -76.385
  H     -139.574     320.913     -78.530
  H     -139.231     324.100     -80.401
  H     -137.135     323.044     -78.777
  H     -137.571     320.795     -79.534
  H     -137.994     322.009     -82.318
  H     -139.549     320.096     -82.596
  H     -137.873     319.545     -82.364
  P     -135.354     319.828     -80.440
  C     -134.362     320.711     -78.190
  O     -135.239     319.820     -78.843
  O     -133.854     320.026     -80.968
  O     -136.082     318.681     -81.056
  H     -133.550     320.945     -80.867
  H     -134.277     321.661     -78.725
  H     -133.370     320.248     -78.112
  H     -134.740     320.905     -77.183
  H     -143.243     319.336     -80.620
  H     -141.746     320.034     -80.049
  H     -142.320     318.527     -79.377

 3  4  5  6  7  8  9  10  11  12  13  23  28  29  30  31  32 0
 6-311+G(2d,p)
 ****
 33  34 0
 6-311+G(2d,p)
 ****
 1  2  14  15  16  17  18  19  20  21  22  24  25  26 0
 3-21G
 ****
 27  35  36  37  38  39  40  41  42  43  44  45 0
 3-21G
 ****


