%nproc=1
%NoSave
%Mem=1900MB
#P OB98/GEN NMR

erre ene a

0 1
  C       64.491    -126.254     444.477
  O       64.119    -125.656     445.695
  H       65.442    -125.819     444.156
  H       63.744    -126.051     443.705
  H       64.626    -127.334     444.598
  P       62.727    -126.078     446.387
  C       61.587    -124.009     445.370
  O       61.912    -124.700     446.572
  C       61.491    -122.504     445.612
  O       60.316    -122.216     446.425
  C       62.712    -121.911     446.333
  O       63.143    -120.720     445.664
  C       62.173    -121.556     447.717
  O       62.920    -120.527     448.358
  C       60.715    -121.210     447.373
  N       59.871    -121.189     448.557
  C       59.264    -119.967     448.867
  O       59.457    -118.984     448.152
  N       58.506    -119.869     450.003
  C       58.399    -120.896     450.792
  N       57.653    -120.729     451.920
  C       59.042    -122.200     450.520
  C       59.752    -122.279     449.395
  O       62.870    -126.900     447.623
  O       61.904    -126.817     445.227
  H       63.042    -119.786     447.724
  H       61.225    -127.406     445.643
  H       58.921    -123.025     451.211
  H       60.262    -123.193     449.109
  H       60.653    -120.228     446.876
  H       62.205    -122.445     448.352
  H       63.552    -122.603     446.402
  H       61.321    -122.009     444.643
  H       57.233    -119.818     452.070
  H       60.632    -124.402     444.988
  H       57.516    -121.443     452.617
  H       62.376    -124.208     444.636
  P       64.232    -120.913     444.502
  C       66.101    -120.969     446.305
  O       65.650    -120.422     445.072
  O       63.827    -119.798     443.427
  O       64.218    -122.286     443.899
  H       63.466    -120.219     442.627
  H       67.053    -120.550     446.554
  H       66.192    -122.031     446.212
  H       65.397    -120.738     447.077

 6  7  8  9  10  11  12  13  14  15  16  26  30  31  32  33  35 0
 6-311+G(2d,p)
 ****
 37  38 0
 6-311+G(2d,p)
 ****
 1  2  3  4  5  17  18  19  20  21  22  23  24  25 0
 3-21G
 ****
 27  28  29  34  36  39  40  41  42  43  44  45  46 0
 3-21G
 ****


