%nproc=1
%NoSave
%Mem=1900MB
#P OB98/GEN NMR

erre ene a

0 1
  C      -32.968    -446.286     460.972
  O      -32.953    -447.494     461.737
  P      -31.724    -448.501     461.477
  C      -29.457    -447.946     462.640
  O      -30.781    -448.451     462.775
  C      -28.670    -448.124     463.937
  O      -29.218    -447.302     464.991
  C      -28.694    -449.546     464.496
  O      -27.770    -450.387     463.822
  C      -28.261    -449.303     465.932
  O      -26.829    -449.213     466.006
  C      -28.904    -447.938     466.249
  N      -30.868    -448.560     470.887
  C      -29.545    -448.503     470.487
  N      -28.616    -448.594     471.464
  N      -29.170    -448.360     469.240
  C      -30.209    -448.252     468.374
  C      -31.560    -448.298     468.648
  C      -31.964    -448.480     470.032
  O      -33.115    -448.572     470.436
  N      -32.310    -448.141     467.508
  C      -31.413    -447.973     466.548
  N      -30.128    -448.046     467.022
  O      -30.862    -447.732     460.367
  O      -32.138    -449.858     461.023
  H      -26.474    -450.121     465.877
  H      -30.357    -448.374     459.833
  H      -31.098    -448.674     471.861
  H      -31.648    -447.795     465.509
  H      -28.213    -447.283     466.792
  H      -28.561    -450.114     466.609
  H      -28.838    -448.633     472.450
  H      -29.714    -449.955     464.480
  H      -27.641    -448.515     471.187
  H      -27.634    -447.813     463.755
  H      -29.495    -446.885     462.378
  H      -28.964    -448.462     461.806
  P      -28.291    -451.837     463.366
  C      -29.805    -452.604     461.401
  O      -29.437    -451.560     462.279
  O      -29.094    -452.355     464.654
  O      -27.206    -452.782     462.959
  H      -29.070    -453.330     464.695
  H      -29.891    -453.559     461.930
  H      -29.057    -452.693     460.601
  H      -30.773    -452.366     460.956
  H      -33.829    -445.708     461.236
  H      -33.004    -446.524     459.930
  H      -32.082    -445.722     461.178

 3  4  5  6  7  8  9  10  11  12  23  26  30  31  33  0
 6-311+G(2d,p)
 ****
 35  36  37  38 0
 6-311+G(2d,p)
 ****
 1  2  13  14  15  16  17  18  19  20  21  22  24  25  27  28  29 0
 3-21G
 ****
 32  34  39  40  41  42  43  44  45  46  47  48  49 0
 3-21G
 ****


