%nproc=1
%NoSave
%Mem=1900MB
#P OB98/GEN NMR

erre ene a

0 1
  C     -685.707     108.306     160.084
  O     -684.608     108.084     159.222
  H     -686.598     108.486     159.474
  H     -685.530     109.181     160.717
  H     -685.877     107.420     160.709
  P     -683.186     107.833     159.925
  C     -682.477     110.305     159.711
  O     -682.821     109.247     160.597
  C     -682.022     111.539     160.494
  O     -681.141     111.106     161.562
  C     -681.255     112.554     159.638
  O     -681.615     113.876     160.045
  C     -679.800     112.288     159.985
  O     -678.974     113.431     159.783
  C     -679.911     111.841     161.448
  N     -674.964     111.893     162.711
  C     -675.855     112.891     162.507
  N     -677.165     112.784     162.185
  C     -677.537     111.494     162.127
  C     -676.742     110.371     162.305
  C     -675.390     110.611     162.605
  N     -674.473     109.602     162.791
  N     -677.487     109.217     162.126
  C     -678.706     109.640     161.854
  N     -678.788     111.004     161.829
  O     -682.132     107.250     159.050
  O     -683.604     106.945     161.187
  H     -678.042     113.134     159.722
  H     -684.402     107.293     161.623
  H     -675.466     113.900     162.604
  H     -679.560     108.997     161.655
  H     -679.941     112.686     162.147
  H     -679.419     111.475     159.358
  H     -681.448     112.433     158.571
  H     -682.901     111.997     160.973
  H     -683.338     110.562     159.084
  H     -673.517     109.864     163.016
  H     -674.766     108.641     162.734
  H     -681.673     109.946     159.058
  P     -682.908     114.555     159.387
  C     -681.373     115.919     157.806
  O     -682.522     115.072     157.918
  O     -683.639     115.540     160.243
  O     -683.844     113.282     159.064
  H     -684.770     113.521     159.229
  H     -681.228     116.190     156.781
  H     -680.509     115.398     158.163
  H     -681.523     116.802     158.391

 6  7  8  9  10  11  12  13  14  15  25  28  32  33  34  35 0
 6-311+G(2d,p)
 ****
 36  39  40 0
 6-311+G(2d,p)
 ****
 1  2  3  4  5  16  17  18  19  20  21  22  23  24 0
 3-21G
 ****
 26  27  29  30  31  37  38  41  42  43  44  45  46  47 0
 3-21G
 ****
 48 0
 3-21G
 ****


