%nproc=1
%NoSave
%Mem=1900MB
#P OB98/GEN NMR

erre ene a

0 1
  C     -117.207    -121.997    -353.667
  O     -117.074    -123.158    -354.465
  H     -116.373    -121.323    -353.886
  H     -117.180    -122.263    -352.606
  H     -118.149    -121.483    -353.900
  P     -118.197    -124.289    -354.273
  C     -117.587    -126.398    -352.888
  O     -117.873    -125.007    -352.869
  C     -116.092    -126.632    -353.090
  O     -115.321    -125.902    -352.106
  C     -115.661    -128.090    -352.988
  O     -115.879    -128.783    -354.205
  C     -114.186    -127.943    -352.650
  O     -113.395    -127.684    -353.832
  C     -114.187    -126.724    -351.719
  N     -111.552    -128.197    -347.658
  C     -111.127    -127.887    -348.938
  N     -109.802    -128.048    -349.182
  N     -111.917    -127.468    -349.889
  C     -113.216    -127.391    -349.508
  C     -113.760    -127.652    -348.269
  C     -112.862    -128.086    -347.218
  O     -113.173    -128.307    -346.046
  N     -115.118    -127.442    -348.273
  C     -115.397    -127.090    -349.509
  N     -114.278    -127.061    -350.306
  O     -117.794    -125.403    -355.354
  O     -119.606    -123.832    -354.454
  H     -113.315    -128.500    -354.350
  H     -118.601    -125.853    -355.665
  H     -110.892    -128.494    -346.964
  H     -116.383    -126.844    -349.879
  H     -113.284    -126.109    -351.837
  H     -113.776    -128.852    -352.195
  H     -109.226    -128.660    -348.620
  H     -116.175    -128.589    -352.151
  H     -109.487    -127.844    -350.123
  H     -115.823    -126.225    -354.077
  H     -118.137    -126.865    -353.710
  H     -117.912    -126.844    -351.939
  P     -115.678    -130.374    -354.207
  C     -113.526    -131.167    -355.445
  O     -114.089    -130.630    -354.258
  O     -116.160    -130.801    -355.676
  O     -116.420    -131.100    -353.138
  H     -116.334    -131.763    -355.703
  H     -112.469    -131.277    -355.320
  H     -113.722    -130.506    -356.263
  H     -113.963    -132.123    -355.646

 6  7  8  9  10  11  12  13  14  15  26  29  33  34 0
 6-311+G(2d,p)
 ****
 36  38  39  40  41 0
 6-311+G(2d,p)
 ****
 1  2  3  4  5  16  17  18  19  20  21  22  23  24  25 0
 3-21G
 ****
 27  28  30  31  32  35  37  42  43  44  45  46  47 0
 3-21G
 ****
 48  49 0
 3-21G
 ****


