%nproc=1
%NoSave
%Mem=1900MB
#P OB98/GEN NMR

erre ene a

0 1
  C      -90.732     643.375     393.883
  O      -89.729     643.959     394.694
  H      -91.708     643.755     394.205
  H      -90.720     642.288     394.006
  H      -90.575     643.634     392.835
  P      -88.214     643.550     394.353
  C      -88.033     641.458     395.890
  O      -88.123     641.962     394.571
  C      -89.217     640.523     396.180
  O      -89.148     639.380     395.270
  C      -89.222     639.953     397.613
  O      -90.587     639.723     398.006
  C      -88.528     638.617     397.415
  O      -88.750     637.775     398.524
  C      -89.148     638.192     396.091
  N      -89.596     633.988     393.242
  C      -90.510     634.894     393.663
  N      -90.300     635.996     394.419
  C      -88.998     636.131     394.707
  C      -87.960     635.292     394.350
  C      -88.303     634.164     393.588
  N      -87.383     633.223     393.170
  N      -86.758     635.754     394.871
  C      -87.078     636.854     395.519
  N      -88.421     637.119     395.444
  O      -87.389     644.148     395.589
  O      -87.692     644.033     393.041
  H      -88.166     636.993     398.496
  H      -87.070     645.043     395.372
  H      -91.531     634.709     393.358
  H      -86.382     637.492     396.058
  H      -90.185     637.860     396.200
  H      -87.442     638.745     397.324
  H      -88.738     640.607     398.341
  H      -90.159     641.052     395.958
  H      -88.043     642.293     396.589
  H      -87.100     640.900     396.010
  H      -87.715     632.431     392.653
  H      -86.419     633.323     393.452
  P      -91.459     640.952     398.554
  C      -90.855     640.743     401.078
  O      -90.824     641.538     399.903
  O      -92.781     640.212     399.084
  O      -91.826     641.984     397.530
  H      -93.573     640.692     398.786
  H      -90.394     641.277     401.882
  H      -90.324     639.830     400.905
  H      -91.871     640.522     401.333

 6  7  8  9  10  11  12  13  14  15  25  28  32  33  34  35 0
 6-311+G(2d,p)
 ****
 36  37  40 0
 6-311+G(2d,p)
 ****
 1  2  3  4  5  16  17  18  19  20  21  22  23  24 0
 3-21G
 ****
 26  27  29  30  31  38  39 41  42  43  44  45  46  47  48 0
 3-21G
 ****


