%nproc=1
%NoSave
%Mem=1900MB
#P OB98/GEN NMR

erre ene a

0 1
  C     -190.773    -443.264    -146.040
  O     -189.590    -443.584    -146.745
  H     -191.090    -442.257    -146.327
  H     -190.582    -443.279    -144.963
  H     -191.569    -443.971    -146.289
  P     -189.045    -445.083    -146.603
  C     -187.032    -444.862    -148.279
  O     -187.473    -445.053    -146.938
  C     -185.509    -444.742    -148.314
  O     -185.050    -443.660    -147.476
  C     -184.781    -445.958    -147.766
  O     -184.868    -447.077    -148.619
  C     -183.374    -445.395    -147.623
  O     -182.698    -445.365    -148.885
  C     -183.673    -443.958    -147.124
  N     -183.433    -443.803    -145.697
  C     -182.138    -443.412    -145.333
  O     -181.284    -443.214    -146.196
  N     -181.837    -443.287    -143.998
  C     -182.753    -443.505    -143.107
  N     -182.392    -443.376    -141.803
  C     -184.139    -443.891    -143.447
  C     -184.405    -444.026    -144.745
  O     -189.666    -445.806    -147.889
  O     -189.356    -445.754    -145.304
  H     -182.515    -446.297    -149.120
  H     -189.468    -445.350    -148.724
  H     -184.872    -444.056    -142.671
  H     -185.396    -444.307    -145.081
  H     -183.045    -443.230    -147.655
  H     -182.759    -445.994    -146.946
  H     -185.153    -446.200    -146.761
  H     -185.211    -444.526    -149.349
  H     -181.428    -443.130    -141.605
  H     -187.500    -443.978    -148.721
  H     -183.009    -443.551    -141.024
  H     -187.357    -445.733    -148.858
  P     -185.313    -448.508    -148.047
  C     -186.767    -449.154    -150.071
  O     -185.589    -449.439    -149.328
  O     -186.427    -448.475    -147.055
  O     -183.945    -449.114    -147.473
  H     -183.240    -449.220    -148.134
  H     -186.843    -449.834    -150.894
  H     -186.722    -448.151    -150.440
  H     -187.623    -449.263    -149.438

 6  7  8  9  10  11  12  13  14  15  16  26  30  31  32  33  35 0
 6-311+G(2d,p)
 ****
 37  38 0
 6-311+G(2d,p)
 ****
 1  2  3  4  5  17  18  19  20  21  22  23  24  25 0
 3-21G
 ****
 27  28  29  34  36  39  40  41  42  43  44  45  46 0
 3-21G
 ****


