%nproc=1
%NoSave
%Mem=1900MB
#P OB98/GEN NMR

erre ene a

0 1
  C      -40.728       0.882     -22.374
  O      -41.978       1.276     -21.832
  P      -42.596       2.724     -22.141
  C      -44.840       1.595     -22.688
  O      -44.171       2.563     -21.889
  C      -46.348       1.688     -22.474
  O      -46.668       1.067     -21.207
  C      -46.923       3.101     -22.384
  O      -47.206       3.705     -23.637
  C      -48.230       2.828     -21.652
  O      -49.205       2.308     -22.574
  C      -47.820       1.747     -20.649
  N      -49.515       4.505     -16.688
  C      -50.114       4.098     -17.830
  N      -49.589       3.382     -18.845
  C      -48.317       3.044     -18.577
  C      -47.575       3.379     -17.457
  C      -48.228       4.147     -16.477
  N      -47.621       4.540     -15.304
  N      -46.296       2.867     -17.548
  C      -46.276       2.224     -18.696
  N      -47.475       2.295     -19.350
  O      -42.204       3.294     -23.458
  O      -42.125       3.625     -20.908
  H      -49.972       2.020     -22.045
  H      -42.223       4.571     -21.131
  H      -51.154       4.392     -17.946
  H      -45.420       1.699     -19.094
  H      -48.601       0.993     -20.499
  H      -48.664       3.727     -21.204
  H      -46.293       3.750     -21.764
  H      -46.845       1.115     -23.266
  H      -44.494       0.600     -22.384
  H      -48.203       4.975     -14.605
  H      -46.723       4.139     -15.075
  H      -44.580       1.742     -23.739
  P      -46.171       4.818     -24.165
  C      -46.531       4.477     -26.734
  O      -46.730       5.283     -25.594
  O      -44.744       4.398     -24.140
  O      -46.486       6.070     -23.220
  H      -47.360       6.475     -23.346
  H      -47.120       4.886     -27.560
  H      -46.858       3.451     -26.549
  H      -45.476       4.483     -27.019
  H      -40.496      -0.111     -22.051
  H      -39.966       1.553     -22.038
  H      -40.779       0.907     -23.443

 3  4  5  6  7  8  9  10  11  12  22  25  29  30  31  32 0
 6-311+G(2d,p)
 ****
 33  36  37 0
 6-311+G(2d,p)
 ****
 1  2  13  14  15  16  17  18  19  20  21  23  24  26 0
 3-21G
 ****
 27  28  34  35  38  39  40  41  42  43  44  45  46  47  48 0
 3-21G
 ****


