%nproc=1
%NoSave
%Mem=1900MB
#P OB98/GEN NMR

erre ene a

0 1
  C       69.117       3.143     -49.050
  O       70.072       3.141     -48.007
  H       68.120       3.341     -48.648
  H       69.372       3.934     -49.760
  H       69.125       2.182     -49.572
  P       69.856       2.069     -46.833
  C       68.961       2.713     -44.477
  O       68.736       2.711     -45.879
  C       67.687       3.150     -43.762
  O       67.438       4.553     -44.007
  C       66.436       2.419     -44.234
  O       66.280       1.153     -43.617
  C       65.356       3.387     -43.784
  O       65.149       3.262     -42.366
  C       66.000       4.743     -44.112
  N       62.570       7.277     -46.944
  C       62.625       7.007     -45.621
  N       63.583       6.345     -44.942
  C       64.567       5.953     -45.766
  C       64.652       6.162     -47.133
  C       63.587       6.856     -47.731
  N       63.512       7.106     -49.083
  N       65.803       5.591     -47.640
  C       66.408       5.067     -46.594
  N       65.683       5.230     -45.444
  O       71.189       2.192     -45.955
  O       69.570       0.672     -47.269
  H       64.803       2.363     -42.206
  H       71.266       1.434     -45.346
  H       61.787       7.368     -45.033
  H       67.359       4.551     -46.618
  H       65.714       5.528     -43.403
  H       64.393       3.200     -44.267
  H       66.407       2.334     -45.326
  H       67.835       3.022     -42.683
  H       69.771       3.412     -44.245
  H       62.643       7.477     -49.434
  H       64.186       6.671     -49.694
  H       69.248       1.708     -44.153
  P       65.384       0.061     -44.382
  C       63.130      -1.001     -43.647
  O       63.903       0.187     -43.777
  O       65.913      -1.322     -43.778
  O       65.486       0.105     -45.871
  H       65.857      -2.035     -44.442
  H       62.173      -0.760     -43.233
  H       63.636      -1.687     -43.001
  H       62.999      -1.449     -44.610

 6  7  8  9  10  11  12  13  14  15  25  28  32  33  34  35 0
 6-311+G(2d,p)
 ****
 36  39  40 0
 6-311+G(2d,p)
 ****
 1  2  3  4  5  16  17  18  19  20  21  22  23  24 0
 3-21G
 ****
 26  27  29  30  31  37  38  41  42  43  44  45  46  47 0
 3-21G
 ****
 48 0
 3-21G
 ****


