%nproc=1
%NoSave
%Mem=1900MB
#P OB98/GEN NMR

erre ene a

0 1
  C       36.562    -301.826     208.908
  O       35.363    -301.039     208.864
  P       34.008    -301.458     209.614
  C       34.167    -301.760     212.172
  O       34.013    -300.843     211.100
  C       34.586    -301.060     213.470
  O       35.962    -300.582     213.361
  C       33.710    -299.850     213.850
  O       33.565    -299.880     215.273
  C       34.575    -298.680     213.400
  O       34.214    -297.444     213.988
  C       35.957    -299.206     213.807
  N       37.095    -298.479     213.253
  C       37.635    -297.436     214.015
  O       37.139    -297.101     215.090
  N       38.736    -296.771     213.527
  C       39.246    -297.104     212.383
  N       40.337    -296.411     211.964
  C       38.697    -298.178     211.538
  C       37.635    -298.821     212.031
  O       33.732    -302.927     209.582
  O       32.841    -300.651     208.870
  H       32.034    -301.204     208.841
  H       34.310    -297.532     214.953
  H       39.156    -298.431     210.596
  H       37.191    -299.645     211.484
  H       36.030    -299.223     214.900
  H       34.483    -298.573     212.313
  H       32.715    -299.868     213.392
  H       34.576    -301.806     214.277
  H       40.695    -295.684     212.575
  H       34.943    -302.486     211.899
  H       40.818    -296.591     211.096
  H       33.225    -302.305     212.318
  P       32.124    -300.170     215.921
  C       31.992    -302.666     215.178
  O       32.046    -301.740     216.244
  O       31.160    -300.047     214.645
  O       31.679    -299.227     216.992
  H       30.264    -299.807     214.938
  H       32.675    -303.494     215.393
  H       32.279    -302.217     214.222
  H       30.976    -303.060     215.098
  H       37.326    -301.344     208.335
  H       36.367    -302.796     208.499
  H       36.886    -301.925     209.923

 3  4  5  6  7  8  9  10  11  12  13  24  27  28  29  30  32 0
 6-311+G(2d,p)
 ****
 34  35 0
 6-311+G(2d,p)
 ****
 1  2  14  15  16  17  18  19  20  21  22  23  25  26 0
 3-21G
 ****
 31  33  36  37  38  39  40  41  42  43  44  45  46 0
 3-21G
 ****


