%nproc=1
%NoSave
%Mem=1900MB
#P OB98/GEN NMR

erre ene a

0 1
  C      554.463    -892.590    -338.899
  O      553.702    -892.300    -337.745
  H      555.432    -892.070    -338.831
  H      553.948    -892.270    -339.804
  H      554.665    -893.670    -338.950
  P      552.200    -892.860    -337.668
  C      552.706    -894.840    -336.092
  O      552.386    -894.440    -337.404
  C      552.759    -896.380    -336.010
  O      551.450    -896.950    -336.184
  C      553.625    -897.040    -337.084
  O      555.020    -896.900    -336.859
  C      553.153    -898.480    -336.939
  O      553.746    -899.070    -335.772
  C      551.626    -898.260    -336.759
  N      550.886    -898.410    -337.991
  C      549.839    -899.340    -337.999
  O      549.571    -900.000    -337.009
  N      549.131    -899.540    -339.169
  C      549.443    -898.870    -340.233
  N      548.734    -899.120    -341.365
  C      550.520    -897.850    -340.273
  C      551.187    -897.690    -339.127
  O      551.300    -892.500    -338.795
  O      551.667    -892.360    -336.243
  H      553.282    -899.900    -335.604
  H      550.744    -892.680    -336.140
  H      550.751    -897.350    -341.174
  H      552.007    -896.980    -339.082
  H      551.243    -898.990    -336.032
  H      553.429    -899.100    -337.798
  H      553.361    -896.690    -338.082
  H      553.110    -896.650    -334.994
  H      548.040    -899.850    -341.311
  H      551.961    -894.430    -335.408
  H      549.093    -898.850    -342.277
  H      553.692    -894.450    -335.805
  P      556.034    -897.740    -337.777
  C      557.404    -896.140    -339.297
  O      556.234    -896.920    -339.145
  O      555.123    -898.980    -338.229
  O      557.323    -898.160    -337.125
  H      555.274    -899.750    -337.637
  H      557.390    -895.659    -340.253
  H      558.265    -896.771    -339.228
  H      557.442    -895.399    -338.526

 6  7  8  9  10  11  12  13  14  15  16  26  30  31  32  33  35 0
 6-311+G(2d,p)
 ****
 37  38 0
 6-311+G(2d,p)
 ****
 1  2  3  4  5  17  18  19  20  21  22  23  24  25 0
 3-21G
 ****
 27  28  29  34  36  39  40  41  42  43  44  45  46 0
 3-21G
 ****


