%nproc=1
%NoSave
%Mem=1900MB
#P OB98/GEN NMR

erre ene a

0 1
  C       48.649      29.063     154.893
  O       48.298      30.139     155.742
  H       49.497      28.533     155.335
  H       48.939      29.425     153.904
  H       47.810      28.368     154.804
  P       47.267      31.235     155.185
  C       49.115      31.737     153.459
  O       48.165      32.288     154.366
  C       49.772      32.828     152.614
  O       50.703      32.253     151.672
  C       48.799      33.625     151.761
  O       47.899      34.430     152.488
  C       49.729      34.275     150.749
  O       50.344      35.459     151.257
  C       50.793      33.167     150.555
  N       50.644      32.474     149.280
  C       51.709      32.590     148.396
  O       52.722      33.250     148.633
  N       51.563      31.945     147.198
  C       50.461      31.251     146.793
  O       50.384      30.712     145.695
  C       49.349      31.197     147.755
  C       49.489      31.799     148.939
  O       46.376      31.869     156.213
  O       46.472      30.464     154.032
  H       49.623      36.071     151.500
  H       45.648      30.949     153.779
  H       52.332      32.004     146.549
  H       48.454      30.666     147.463
  H       48.683      31.770     149.667
  H       51.802      33.599     150.589
  H       49.209      34.551     149.829
  H       48.176      32.918     151.198
  H       50.340      33.481     153.286
  H       48.583      31.042     152.799
  H       49.875      31.182     154.018
  P       46.332      34.485     152.206
  C       46.472      36.722     150.862
  O       45.911      36.012     151.958
  O       45.462      33.651     153.090
  O       46.247      33.868     150.716
  H       45.407      33.370     150.659
  H       46.084      37.719     150.847
  H       46.218      36.226     149.948
  H       47.536      36.755     150.966

 6  7  8  9  10  11  12  13  14  15  16  26  31  32  33  34  35 0
 6-311+G(2d,p)
 ****
 36  37 0
 6-311+G(2d,p)
 ****
 1  2  3  4  5  17  18  19  20  21  22  23  24  25 0
 3-21G
 ****
 27  28  29  30  38  39  40  41  42  43  44  45 0
 3-21G
 ****


