%nproc=1
%NoSave
%Mem=1900MB
#P OB98/GEN NMR

erre ene a

0 1
  C     -112.170     239.231     436.487
  O     -111.858     240.268     437.396
  P     -112.185     240.122     438.959
  C     -114.157     240.586     440.531
  O     -113.733     240.491     439.183
  C     -114.719     241.977     440.838
  O     -113.615     242.915     441.016
  C     -115.644     242.542     439.754
  O     -116.694     243.249     440.418
  C     -114.741     243.505     439.003
  O     -115.479     244.487     438.290
  C     -113.869     244.036     440.143
  N     -112.636     244.635     439.670
  C     -112.696     245.973     439.269
  O     -113.777     246.550     439.197
  N     -111.519     246.612     438.940
  C     -110.423     245.919     438.844
  N     -109.273     246.602     438.585
  C     -110.379     244.456     439.018
  C     -111.499     243.882     439.471
  O     -111.244     240.840     439.871
  O     -112.151     238.541     439.226
  H     -111.536     238.355     439.967
  H     -115.959     244.055     437.558
  H     -109.472     243.911     438.805
  H     -111.552     242.818     439.658
  H     -114.425     244.779     440.731
  H     -114.130     242.955     438.277
  H     -116.076     241.757     439.124
  H     -115.247     241.927     441.797
  H     -109.336     247.612     438.508
  H     -113.293     240.401     441.171
  H     -108.355     246.218     438.800
  H     -114.906     239.816     440.742
  P     -117.939     243.771     439.536
  C     -118.260     245.790     437.928
  O     -117.371     244.842     438.475
  O     -118.699     244.721     440.587
  O     -118.872     242.731     439.016
  H     -119.640     244.784     440.329
  H     -117.727     246.376     437.172
  H     -118.628     246.460     438.703
  H     -119.101     245.286     437.437
  H     -111.875     239.521     435.500
  H     -113.224     239.046     436.504
  H     -111.647     238.341     436.768

 3  4  5  6  7  8  9  10  11  12  13  24  27  28  29  30  32 0
 6-311+G(2d,p)
 ****
 34  35 0
 6-311+G(2d,p)
 ****
 1  2  14  15  16  17  18  19  20  21  22  23  25  26 0
 3-21G
 ****
 31  33  36  37  38  39  40  41  42  43  44  45  46 0
 3-21G
 ****


