%nproc=1
%NoSave
%Mem=1900MB
#P OB98/GEN NMR

erre ene a

0 1
  C       37.090    -212.832    -285.186
  O       38.301    -212.465    -285.873
  P       38.202    -211.658    -287.260
  C       38.525    -209.089    -286.937
  O       39.124    -210.346    -287.214
  C       39.584    -207.985    -286.794
  O       40.251    -208.096    -285.501
  C       40.683    -208.016    -287.867
  O       41.083    -206.653    -288.101
  C       41.803    -208.770    -287.169
  O       43.078    -208.559    -287.762
  C       41.669    -208.204    -285.751
  N       42.316    -209.019    -284.718
  C       43.671    -209.295    -284.865
  O       44.350    -208.961    -285.828
  N       44.242    -210.024    -283.848
  C       43.597    -210.524    -282.754
  O       44.161    -211.191    -281.896
  C       42.164    -210.224    -282.666
  C       41.598    -209.500    -283.632
  O       36.722    -211.037    -287.176
  O       38.342    -212.486    -288.499
  H       43.276    -207.607    -287.680
  H       36.263    -211.169    -288.026
  H       45.226    -210.222    -283.928
  H       41.615    -210.594    -281.811
  H       40.540    -209.257    -283.583
  H       42.074    -207.194    -285.720
  H       41.590    -209.847    -287.207
  H       40.362    -208.481    -288.801
  H       39.067    -207.013    -286.798
  H       37.958    -209.156    -286.003
  H       37.833    -208.840    -287.745
  P       40.452    -205.878    -289.365
  C       38.307    -204.415    -289.007
  O       39.695    -204.589    -288.797
  O       39.248    -206.877    -289.736
  O       41.403    -205.657    -290.493
  H       38.747    -207.166    -288.956
  H       37.765    -205.360    -288.882
  H       38.135    -204.023    -290.014
  H       37.926    -203.696    -288.278
  H       37.335    -213.359    -284.288
  H       36.498    -213.460    -285.818
  H       36.537    -211.949    -284.942

 3  4  5  6  7  8  9  10  11  12  13  23  28  29  30  31  32 0
 6-311+G(2d,p)
 ****
 33  34 0
 6-311+G(2d,p)
 ****
 1  2  14  15  16  17  18  19  20  21  22  24  25  26 0
 3-21G
 ****
 27  35  36  37  38  39  40  41  42  43  44  45 0
 3-21G
 ****


