%nproc=1
%NoSave
%Mem=1900MB
#P OB98/GEN NMR

erre ene a

0 1
  C      -46.054     146.427    -108.273
  O      -47.428     146.669    -108.048
  H      -45.876     145.349    -108.233
  H      -45.464     146.909    -107.491
  H      -45.748     146.798    -109.256
  P      -47.968     148.142    -108.388
  C      -47.600     150.514    -107.401
  O      -47.233     149.143    -107.370
  C      -46.811     151.295    -106.355
  O      -45.615     151.852    -106.938
  C      -47.573     152.465    -105.738
  O      -48.418     152.037    -104.677
  C      -46.421     153.305    -105.212
  O      -45.914     152.725    -103.991
  C      -45.382     153.155    -106.332
  N      -43.837     157.773    -107.752
  C      -43.600     157.081    -106.580
  N      -42.851     157.713    -105.651
  N      -44.058     155.880    -106.337
  C      -44.811     155.382    -107.345
  C      -45.122     155.973    -108.549
  C      -44.596     157.292    -108.811
  O      -44.769     157.944    -109.838
  N      -45.913     155.161    -109.320
  C      -46.098     154.090    -108.575
  N      -45.452     154.175    -107.365
  O      -49.479     148.095    -107.854
  O      -47.914     148.523    -109.829
  H      -45.585     151.835    -104.213
  H      -50.079     147.986    -108.616
  H      -43.469     158.698    -107.884
  H      -46.680     153.226    -108.864
  H      -44.356     153.161    -105.950
  H      -46.719     154.328    -104.977
  H      -42.486     158.645    -105.765
  H      -48.127     153.033    -106.495
  H      -42.661     157.222    -104.785
  H      -46.495     150.588    -105.576
  H      -48.672     150.601    -107.190
  H      -47.396     150.914    -108.398
  P      -49.410     153.111    -104.019
  C      -49.152     155.207    -102.514
  O      -48.495     154.178    -103.240
  O      -50.097     152.276    -102.839
  O      -50.427     153.687    -104.941
  H      -51.041     152.127    -103.043
  H      -48.423     155.838    -102.050
  H      -49.776     154.771    -101.762
  H      -49.752     155.788    -103.183

 6  7  8  9  10  11  12  13  14  15  26  29  33  34 0
 6-311+G(2d,p)
 ****
 36  38  39  40  41 0
 6-311+G(2d,p)
 ****
 1  2  3  4  5  16  17  18  19  20  21  22  23  24  25 0
 3-21G
 ****
 27  28  30  31  32  35  37  42  43  44  45  46  47 0
 3-21G
 ****
 48  49 0
 3-21G
 ****


