%nproc=1
%NoSave
%Mem=1900MB
#P OB98/GEN NMR

erre ene a

0 1
  C     -306.317     404.925    -314.976
  O     -307.365     405.646    -315.639
  P     -308.629     404.820    -316.176
  C     -310.680     403.771    -314.962
  O     -309.781     404.865    -315.065
  C     -311.794     404.074    -313.954
  O     -311.271     404.332    -312.636
  C     -312.617     405.306    -314.309
  O     -313.616     405.004    -315.270
  C     -313.251     405.630    -312.966
  O     -314.385     404.762    -312.741
  C     -312.125     405.295    -311.983
  N     -312.004     409.548    -309.130
  C     -312.967     408.622    -309.331
  N     -312.935     407.528    -310.115
  C     -311.743     407.425    -310.732
  C     -310.662     408.289    -310.628
  C     -310.826     409.398    -309.782
  N     -309.836     410.336    -309.579
  N     -309.613     407.864    -311.412
  C     -310.047     406.747    -311.968
  N     -311.327     406.447    -311.596
  O     -308.119     403.303    -316.109
  O     -309.053     405.195    -317.553
  H     -315.047     404.970    -313.430
  H     -308.504     402.792    -316.844
  H     -313.895     408.785    -308.779
  H     -309.468     406.124    -312.644
  H     -312.500     404.832    -311.060
  H     -313.623     406.656    -312.912
  H     -311.969     406.136    -314.630
  H     -312.450     403.194    -313.900
  H     -310.139     402.870    -314.665
  H     -310.021     411.091    -308.937
  H     -308.947     410.215    -310.043
  H     -311.099     403.558    -315.956
  P     -313.277     405.318    -316.810
  C     -311.316     404.456    -318.287
  O     -312.252     404.165    -317.264
  O     -312.370     406.632    -316.712
  O     -314.470     405.516    -317.677
  H     -312.483     407.177    -317.519
  H     -310.525     403.706    -318.259
  H     -310.870     405.446    -318.145
  H     -311.810     404.412    -319.264
  H     -305.549     405.607    -314.677
  H     -305.907     404.196    -315.644
  H     -306.713     404.434    -314.112

 3  4  5  6  7  8  9  10  11  12  22  25  29  30  31  32 0
 6-311+G(2d,p)
 ****
 33  36  37 0
 6-311+G(2d,p)
 ****
 1  2  13  14  15  16  17  18  19  20  21  23  24  26 0
 3-21G
 ****
 27  28  34  35  38  39  40  41  42  43  44  45  46  47  48 0
 3-21G
 ****


