%nproc=1
%NoSave
%Mem=1900MB
#P OB98/GEN NMR

erre ene a

0 1
  C     -418.474    -708.747    -409.540
  O     -417.592    -709.442    -410.404
  P     -416.097    -709.723    -409.886
  C     -414.416    -711.686    -410.185
  O     -415.768    -711.245    -410.262
  C     -414.363    -713.199    -410.036
  O     -414.961    -713.614    -408.794
  C     -415.113    -713.966    -411.112
  O     -414.365    -714.095    -412.313
  C     -415.288    -715.324    -410.457
  O     -414.075    -716.090    -410.569
  C     -415.535    -714.936    -408.986
  N     -419.623    -717.784    -408.101
  C     -418.300    -718.151    -408.235
  N     -418.036    -719.474    -408.183
  N     -417.324    -717.307    -408.399
  C     -417.729    -716.012    -408.439
  C     -419.019    -715.525    -408.315
  C     -420.088    -716.472    -408.140
  O     -421.291    -716.213    -408.068
  N     -419.037    -714.152    -408.399
  C     -417.768    -713.814    -408.571
  N     -416.949    -714.912    -408.646
  O     -416.264    -709.768    -408.296
  O     -415.090    -708.711    -410.317
  H     -413.961    -716.285    -411.521
  H     -415.395    -709.659    -407.866
  H     -420.344    -718.475    -407.975
  H     -417.412    -712.799    -408.658
  H     -415.032    -715.616    -408.293
  H     -416.084    -715.924    -410.907
  H     -418.756    -720.190    -408.126
  H     -416.103    -713.523    -411.304
  H     -417.086    -719.786    -408.345
  H     -413.302    -713.508    -410.019
  H     -413.932    -711.213    -409.328
  H     -413.887    -711.374    -411.087
  P     -415.105    -714.769    -413.571
  C     -414.528    -714.824    -416.096
  O     -414.381    -714.161    -414.867
  O     -416.536    -714.062    -413.561
  O     -415.211    -716.259    -413.502
  H     -417.200    -714.631    -413.982
  H     -414.202    -714.151    -416.907
  H     -415.574    -715.103    -416.276
  H     -413.903    -715.725    -416.120
  H     -419.425    -708.635    -410.017
  H     -418.070    -707.781    -409.319
  H     -418.593    -709.300    -408.632

 3  4  5  6  7  8  9  10  11  12  23  26  30  31 0
 6-311+G(2d,p)
 ****
 33  35  36  37  38 0
 6-311+G(2d,p)
 ****
 1  2  13  14  15  16  17  18  19  20  21  22  24  25 0
 3-21G
 ****
 27  28  29  32  34  39  40  41  42  43  44  45  46  47  48  49 0
 3-21G
 ****


