%nproc=1
%NoSave
%Mem=1900MB
#P OB98/GEN NMR

erre ene a

0 1
  C      -13.051     -14.137    -710.191
  O      -13.801     -14.202    -711.413
  P      -14.852     -13.023    -711.695
  C      -14.702     -10.609    -710.727
  O      -14.093     -11.616    -711.531
  C      -13.751      -9.416    -710.565
  O      -12.470      -9.839    -710.043
  C      -13.439      -8.724    -711.883
  O      -14.521      -7.881    -712.263
  C      -12.155      -7.963    -711.544
  O      -12.432      -6.642    -711.041
  C      -11.503      -8.847    -710.458
  N      -10.270      -9.472    -710.909
  C       -9.218      -9.478    -709.977
  O       -9.365      -8.965    -708.856
  N       -8.024     -10.061    -710.340
  C       -7.880     -10.548    -711.537
  N       -6.675     -11.097    -711.835
  C       -8.954     -10.526    -712.552
  C      -10.107      -9.979    -712.180
  O      -15.818     -13.072    -710.423
  O      -15.613     -13.190    -712.974
  H      -12.660      -6.114    -711.834
  H      -16.721     -12.816    -710.669
  H       -8.785     -10.944    -713.530
  H      -10.951      -9.919    -712.862
  H      -11.269      -8.249    -709.564
  H      -11.528      -7.836    -712.433
  H      -13.233      -9.462    -712.666
  H      -14.203      -8.703    -709.862
  H       -5.965     -11.091    -711.111
  H      -14.956     -11.017    -709.739
  H       -6.457     -11.502    -712.737
  H      -15.646     -10.300    -711.180
  P      -15.661      -8.523    -713.203
  C      -17.569     -10.185    -712.763
  O      -16.345      -9.658    -712.288
  O      -14.801      -9.398    -714.235
  O      -16.585      -7.576    -713.893
  H      -15.387      -9.772    -714.925
  H      -17.826     -11.071    -712.177
  H      -17.498     -10.466    -713.815
  H      -18.369      -9.448    -712.631
  H      -12.393     -14.979    -710.131
  H      -13.723     -14.150    -709.359
  H      -12.477     -13.234    -710.172

 3  4  5  6  7  8  9  10  11  12  13  21  23  27  28  29  30  32 0
 6-311+G(2d,p)
 ****
 34  35 0
 6-311+G(2d,p)
 ****
 1  2  14  15  16  17  18  19  20  22  24  25  26 0
 3-21G
 ****
 31  33  36  37  38  39  40  41  42  43  44  45  46 0
 3-21G
 ****


