%nproc=1
%NoSave
%Mem=1900MB
#P OB98/GEN NMR

erre ene a

0 1
  C     -194.469     412.761     -36.944
  O     -195.265     412.146     -35.957
  H     -194.065     413.691     -36.540
  H     -195.085     412.996     -37.818
  H     -193.637     412.119     -37.245
  P     -195.603     410.590     -36.097
  C     -197.603     410.914     -37.695
  O     -197.167     410.443     -36.427
  C     -199.088     410.634     -37.923
  O     -199.289     409.222     -38.152
  C     -199.948     411.010     -36.712
  O     -200.371     412.364     -36.689
  C     -201.138     410.067     -36.867
  O     -202.161     410.646     -37.694
  C     -200.530     408.837     -37.549
  N     -201.301     403.894     -36.492
  C     -201.863     404.664     -37.492
  N     -202.769     404.042     -38.279
  N     -201.572     405.925     -37.679
  C     -200.726     406.431     -36.755
  C     -200.123     405.771     -35.707
  C     -200.393     404.356     -35.551
  O     -199.909     403.631     -34.692
  N     -199.358     406.622     -34.948
  C     -199.571     407.809     -35.485
  N     -200.330     407.731     -36.630
  O     -195.515     410.053     -34.587
  O     -194.684     409.809     -36.988
  H     -201.740     410.955     -38.521
  H     -195.215     409.125     -34.587
  H     -201.544     402.922     -36.414
  H     -199.165     408.745     -35.114
  H     -201.176     408.467     -38.355
  H     -201.597     409.858     -35.896
  H     -203.094     403.103     -38.126
  H     -199.435     410.761     -35.778
  H     -203.343     404.617     -38.901
  H     -199.420     411.159     -38.828
  H     -197.005     410.390     -38.442
  H     -197.393     411.983     -37.798
  P     -199.622     413.443     -35.777
  C     -200.119     412.615     -33.335
  O     -200.379     413.530     -34.377
  O     -199.987     414.829     -36.486
  O     -198.146     413.253     -35.643
  H     -199.255     415.124     -37.059
  H     -200.731     412.853     -32.490
  H     -199.088     412.676     -33.056
  H     -200.341     411.623     -33.668

 6  7  8  9  10  11  12  13  14  15  26  29  33  34 0
 6-311+G(2d,p)
 ****
 36  38  39  40  41 0
 6-311+G(2d,p)
 ****
 1  2  3  4  5  16  17  18  19  20  21  22  23  24  25 0
 3-21G
 ****
 27  28  30  31  32  35  37  42  43  44  45  46  47 0
 3-21G
 ****
 48  49 0
 3-21G
 ****


