%nproc=1
%NoSave
%Mem=1900MB
#P OB98/GEN NMR

erre ene a

0 1
  C      175.547     172.466    -311.938
  O      174.242     172.812    -311.511
  P      173.856     174.326    -311.131
  C      172.551     173.668    -308.997
  O      172.489     174.220    -310.300
  C      171.163     173.665    -308.353
  O      170.675     175.032    -308.296
  C      170.118     172.832    -309.108
  O      169.247     172.254    -308.129
  C      169.384     173.875    -309.928
  O      168.088     173.447    -310.322
  C      169.397     175.066    -308.962
  N      169.192     176.339    -309.640
  C      167.898     176.861    -309.665
  O      166.959     176.252    -309.152
  N      167.688     178.072    -310.276
  C      168.668     178.667    -310.883
  N      168.422     179.893    -311.421
  C      170.025     178.099    -310.976
  C      170.216     176.958    -310.320
  O      173.816     175.270    -312.283
  O      174.904     174.724    -309.993
  H      168.186     172.704    -310.949
  H      175.761     175.058    -310.359
  H      170.802     178.620    -311.518
  H      171.187     176.481    -310.310
  H      168.635     174.931    -308.187
  H      169.956     174.096    -310.836
  H      170.566     172.036    -309.709
  H      171.261     173.309    -307.320
  H      167.534     180.325    -311.189
  H      173.218     174.288    -308.392
  H      169.179     180.541    -311.611
  H      172.967     172.657    -309.042
  P      169.198     170.653    -308.006
  C      166.659     170.720    -308.536
  O      167.684     170.226    -307.702
  O      169.903     170.418    -306.581
  O      169.920     169.884    -309.062
  H      170.293     169.524    -306.565
  H      165.702     170.321    -308.187
  H      166.814     170.395    -309.567
  H      166.622     171.812    -308.491
  H      175.590     171.416    -312.139
  H      176.250     172.711    -311.170
  H      175.787     173.009    -312.828

 3  4  5  6  7  8  9  10  11  12  13  23  27  28  29  30  32 0
 6-311+G(2d,p)
 ****
 34  35 0
 6-311+G(2d,p)
 ****
 1  2  14  15  16  17  18  19  20  21  22  24  25  26 0
 3-21G
 ****
 31  33  36  37  38  39  40  41  42  43  44  45  46 0
 3-21G
 ****


