%nproc=1
%NoSave
%Mem=1900MB
#P OB98/GEN NMR

erre ene a

0 1
  C      435.302    -310.158    -171.701
  O      434.135    -310.799    -172.188
  P      433.116    -311.423    -171.116
  C      431.073    -309.905    -171.575
  O      432.128    -310.234    -170.683
  C      429.721    -310.238    -170.968
  O      429.652    -311.672    -170.719
  C      429.431    -309.526    -169.637
  O      428.078    -309.051    -169.633
  C      429.524    -310.644    -168.610
  O      428.759    -310.365    -167.441
  C      429.017    -311.826    -169.437
  N      427.588    -315.206    -165.963
  C      426.921    -314.096    -166.441
  N      425.725    -313.821    -165.871
  N      427.380    -313.325    -167.389
  C      428.571    -313.736    -167.896
  C      429.321    -314.823    -167.512
  C      428.827    -315.635    -166.419
  O      429.420    -316.578    -165.890
  N      430.463    -314.928    -168.268
  C      430.406    -313.908    -169.099
  N      429.299    -313.129    -168.881
  O      434.049    -311.634    -169.829
  O      432.463    -312.697    -171.524
  H      428.758    -311.174    -166.898
  H      434.012    -312.569    -169.549
  H      427.198    -315.755    -165.221
  H      431.149    -313.681    -169.851
  H      427.927    -311.750    -169.583
  H      430.569    -310.778    -168.313
  H      425.297    -314.390    -165.158
  H      430.114    -308.704    -169.410
  H      425.210    -313.022    -166.221
  H      428.938    -310.008    -171.703
  H      431.201    -310.473    -172.505
  H      431.132    -308.836    -171.812
  P      427.864    -307.540    -169.122
  C      428.293    -306.478    -171.464
  O      428.710    -306.619    -170.119
  O      428.694    -307.492    -167.759
  O      426.431    -307.165    -168.938
  H      428.346    -306.793    -167.172
  H      427.303    -306.917    -171.632
  H      429.013    -306.977    -172.116
  H      428.258    -305.417    -171.715
  H      435.880    -309.795    -172.525
  H      435.884    -310.857    -171.138
  H      435.023    -309.338    -171.073

 3  4  5  6  7  8  9  10  11  12  23  26  30  31  33  0
 6-311+G(2d,p)
 ****
 35  36  37  38 0
 6-311+G(2d,p)
 ****
 1  2  13  14  15  16  17  18  19  20  21  22  24  25  27  28  29 0
 3-21G
 ****
 32  34  39  40  41  42  43  44  45  46  47  48  49 0
 3-21G
 ****


