%nproc=1
%NoSave
%Mem=1900MB
#P OB98/GEN NMR

erre ene a

0 1
  C      358.839    -261.502      -4.252
  O      358.262    -261.802      -5.530
  P      359.093    -261.428      -6.850
  C      358.987    -263.876      -7.674
  O      358.748    -262.501      -7.988
  C      358.449    -264.794      -8.793
  O      357.005    -264.678      -8.851
  C      358.948    -264.439     -10.198
  O      360.161    -265.037     -10.661
  C      357.836    -265.026     -11.062
  O      358.051    -266.431     -11.264
  C      356.574    -264.818     -10.228
  N      352.956    -263.082     -13.414
  C      353.508    -264.306     -13.246
  N      354.462    -264.679     -12.373
  C      354.860    -263.654     -11.608
  C      354.379    -262.343     -11.653
  C      353.390    -262.069     -12.619
  N      352.829    -260.823     -12.800
  N      355.026    -261.553     -10.728
  C      355.878    -262.368     -10.131
  N      355.805    -263.647     -10.617
  O      360.552    -261.146      -6.645
  O      358.331    -260.116      -7.383
  H      357.840    -266.868     -10.420
  H      358.993    -259.494      -7.747
  H      353.127    -265.084     -13.904
  H      356.563    -262.073      -9.350
  H      355.887    -265.676     -10.263
  H      357.796    -264.574     -12.066
  H      358.997    -263.351     -10.343
  H      358.702    -265.831      -8.558
  H      358.481    -264.121      -6.730
  H      352.166    -260.696     -13.530
  H      353.183    -260.036     -12.252
  H      360.054    -263.993      -7.507
  P      361.364    -264.138     -11.249
  C      362.203    -263.400      -8.885
  O      362.468    -264.084     -10.083
  O      360.959    -262.793     -11.776
  O      362.014    -265.110     -12.329
  H      362.471    -265.888     -11.955
  H      362.982    -263.661      -8.154
  H      361.235    -263.681      -8.464
  H      362.234    -262.320      -9.051
  H      358.168    -261.809      -3.477
  H      359.012    -260.449      -4.177
  H      359.767    -262.024      -4.148

 3  4  5  6  7  8  9  10  11  12  22  25  29  30  31  32 0
 6-311+G(2d,p)
 ****
 33  36  37 0
 6-311+G(2d,p)
 ****
 1  2  13  14  15  16  17  18  19  20  21  23  24  26 0
 3-21G
 ****
 27  28  34  35  38  39  40  41  42  43  44  45  46  47  48 0
 3-21G
 ****


