%nproc=1
%NoSave
%Mem=1900MB
#P OB98/GEN NMR

erre ene a

0 1
  C      198.691     -36.878    -280.782
  O      198.231     -38.089    -280.221
  H      198.325     -36.805    -281.809
  H      199.786     -36.867    -280.798
  H      198.315     -36.023    -280.211
  P      198.507     -38.310    -278.652
  C      197.208     -39.646    -276.804
  O      197.457     -39.430    -278.180
  C      195.768     -40.128    -276.590
  O      194.861     -39.092    -277.049
  C      195.430     -41.415    -277.345
  O      194.528     -42.185    -276.546
  C      194.698     -40.913    -278.580
  O      193.854     -41.911    -279.147
  C      193.970     -39.683    -278.017
  N      193.601     -38.727    -279.061
  C      192.384     -38.949    -279.713
  O      191.683     -39.917    -279.410
  N      192.004     -38.097    -280.722
  C      192.805     -37.145    -281.091
  N      192.381     -36.349    -282.112
  C      194.115     -36.897    -280.460
  C      194.443     -37.712    -279.457
  O      197.929     -36.956    -278.025
  O      199.933     -38.588    -278.310
  H      193.423     -42.408    -278.418
  H      197.068     -36.695    -278.395
  H      194.750     -36.096    -280.811
  H      195.386     -37.599    -278.931
  H      193.055     -39.983    -277.489
  H      195.423     -40.610    -279.349
  H      196.313     -42.008    -277.588
  H      195.596     -40.246    -275.513
  H      191.483     -36.565    -282.528
  H      197.369     -38.728    -276.234
  H      192.940     -35.614    -282.517
  H      197.914     -40.402    -276.445
  P      194.905     -43.695    -276.171
  C      194.248     -45.306    -274.256
  O      193.823     -44.271    -275.137
  O      196.330     -43.934    -275.798
  O      194.542     -44.495    -277.521
  H      195.244     -45.158    -277.672
  H      193.433     -45.595    -273.625
  H      195.057     -44.951    -273.653
  H      194.573     -46.150    -274.828

 6  7  8  9  10  11  12  13  14  15  16  26  30  31  32  33  35 0
 6-311+G(2d,p)
 ****
 37  38 0
 6-311+G(2d,p)
 ****
 1  2  3  4  5  17  18  19  20  21  22  23  24  25 0
 3-21G
 ****
 27  28  29  34  36  39  40  41  42  43  44  45  46 0
 3-21G
 ****


