%nproc=1
%NoSave
%Mem=1900MB
#P OB98/GEN NMR

erre ene a

0 1
  C     -898.936    -196.448    -893.940
  O     -898.326    -197.236    -892.920
  P     -896.716    -197.273    -892.890
  C     -894.926    -198.983    -893.660
  O     -896.276    -198.563    -893.740
  C     -894.846    -200.490    -893.490
  O     -895.276    -201.167    -894.710
  C     -893.456    -201.035    -893.210
  O     -893.056    -200.795    -891.870
  C     -893.646    -202.522    -893.570
  O     -894.296    -203.191    -892.500
  C     -894.576    -202.415    -894.790
  N     -891.256    -205.125    -897.590
  C     -891.716    -205.320    -896.340
  N     -892.596    -204.531    -895.660
  C     -892.956    -203.483    -896.390
  C     -892.556    -203.147    -897.680
  C     -891.646    -204.025    -898.270
  N     -891.136    -203.834    -899.570
  N     -893.116    -201.958    -898.110
  C     -893.896    -201.605    -897.120
  N     -893.866    -202.486    -896.070
  O     -896.406    -197.681    -891.360
  O     -896.056    -195.974    -893.290
  H     -893.796    -203.005    -891.680
  H     -895.576    -197.242    -891.070
  H     -891.376    -206.187    -895.810
  H     -894.516    -200.708    -897.100
  H     -895.346    -203.220    -894.800
  H     -892.706    -203.029    -893.780
  H     -892.706    -200.579    -893.890
  H     -895.536    -200.794    -892.670
  H     -894.436    -198.510    -892.800
  H     -890.396    -204.450    -899.850
  H     -891.326    -202.940    -900.000
  H     -894.386    -198.653    -894.560
  P     -891.496    -200.715    -891.550
  C     -889.536    -202.327    -891.980
  O     -890.946    -202.179    -891.960
  O     -891.476    -200.776    -889.940
  O     -890.776    -199.562    -892.180
  H     -892.036    -201.501    -889.620
  H     -889.286    -203.386    -892.220
  H     -889.116    -202.079    -890.990
  H     -889.076    -201.695    -892.750
  H     -900.000    -196.509    -893.849
  H     -898.638    -196.815    -894.900
  H     -898.626    -195.429    -893.836

 3  4  5  6  7  8  9  10  11  12  22  25  29  30  31  32 0
 6-311+G(2d,p)
 ****
 33  36  37 0
 6-311+G(2d,p)
 ****
 1  2  13  14  15  16  17  18  19  20  21  23  24  26 0
 3-21G
 ****
 27  28  34  35  38  39  40  41  42  43  44  45  46  47  48 0
 3-21G
 ****


