%nproc=1
%NoSave
%Mem=1900MB
#P OB98/GEN NMR

erre ene a

0 1
  C      102.187      63.581    -136.928
  O      101.370      64.298    -136.023
  H      101.865      62.539    -136.981
  H      102.090      64.030    -137.920
  H      103.234      63.634    -136.617
  P      101.394      63.810    -134.494
  C      103.394      65.306    -133.790
  O      102.909      63.989    -133.993
  C      104.444      65.314    -132.685
  O      105.030      66.627    -132.563
  C      103.914      64.971    -131.297
  O      103.760      63.570    -131.123
  C      105.031      65.522    -130.423
  O      106.135      64.599    -130.404
  C      105.425      66.801    -131.177
  N      105.903      71.851    -130.513
  C      106.684      70.946    -131.143
  N      106.479      69.622    -131.296
  C      105.318      69.256    -130.730
  C      104.407      70.064    -130.073
  C      104.737      71.423    -129.967
  N      103.961      72.329    -129.260
  N      103.335      69.322    -129.615
  C      103.608      68.084    -129.971
  N      104.791      67.994    -130.654
  O      101.219      62.222    -134.627
  O      100.347      64.412    -133.621
  H      105.922      63.923    -129.733
  H      100.281      61.992    -134.491
  H      107.597      71.337    -131.577
  H      102.984      67.227    -129.755
  H      106.507      66.969    -131.170
  H      104.722      65.681    -129.385
  H      102.987      65.511    -131.077
  H      105.246      64.623    -132.976
  H      102.563      65.960    -133.504
  H      104.493      73.098    -128.863
  H      103.262      71.904    -128.663
  H      103.826      65.669    -134.728
  P      102.771      63.067    -129.965
  C      100.522      63.253    -131.228
  O      101.362      63.797    -130.220
  O      103.347      63.796    -128.662
  O      102.711      61.591    -129.776
  H      103.554      63.132    -127.976
  H       99.623      63.830    -131.293
  H      100.279      62.241    -130.981
  H      101.031      63.278    -132.169

 6  7  8  9  10  11  12  13  14  15  25  28  32  33  34  35 0
 6-311+G(2d,p)
 ****
 36  39  40 0
 6-311+G(2d,p)
 ****
 1  2  3  4  5  16  17  18  19  20  21  22  23  24 0
 3-21G
 ****
 26  27  29  30  31  37  38  41  42  43  44  45  46  47  48 0
 3-21G
 ****


