%nproc=1
%NoSave
%Mem=1900MB
#P OB98/GEN NMR

erre ene a

0 1
  C       52.238      59.954      35.726
  O       52.656      60.231      37.064
  P       52.224      59.170      38.189
  C       53.417      59.803      40.401
  O       52.238      59.905      39.616
  C       54.487      60.810      39.957
  O       53.986      62.170      40.046
  C       55.769      60.744      40.788
  O       56.860      61.050      39.917
  C       55.598      61.884      41.773
  O       56.853      62.295      42.310
  C       54.889      62.920      40.885
  N       54.188      63.948      41.650
  C       54.972      64.914      42.284
  O       56.202      64.839      42.246
  N       54.351      65.919      42.983
  C       53.059      65.926      43.085
  N       52.502      66.946      43.793
  C       52.194      64.894      42.482
  C       52.820      63.950      41.784
  O       53.475      58.175      38.260
  O       50.962      58.437      37.866
  H       57.313      61.499      42.652
  H       53.170      57.251      38.206
  H       51.122      64.930      42.610
  H       52.273      63.152      41.303
  H       55.611      63.425      40.230
  H       54.947      61.577      42.600
  H       55.934      59.771      41.261
  H       54.720      60.616      38.904
  H       53.128      67.639      44.185
  H       53.826      58.793      40.325
  H       51.509      67.050      43.937
  H       53.157      59.947      41.454
  P       57.820      59.855      39.452
  C       57.766      60.565      36.985
  O       58.562      60.411      38.143
  O       56.767      58.830      38.806
  O       58.671      59.184      40.476
  H       57.224      58.011      38.542
  H       58.361      61.063      36.215
  H       56.887      61.178      37.204
  H       57.458      59.585      36.610
  H       52.586      60.729      35.076
  H       51.170      59.909      35.688
  H       52.645      59.016      35.412

 3  4  5  6  7  8  9  10  11  12  13  21  23  27  28  29  30  32 0
 6-311+G(2d,p)
 ****
 34  35 0
 6-311+G(2d,p)
 ****
 1  2  14  15  16  17  18  19  20  22  24  25  26 0
 3-21G
 ****
 31  33  36  37  38  39  40  41  42  43  44  45  46 0
 3-21G
 ****


