%nproc=1
%NoSave
%Mem=1900MB
#P OB98/GEN NMR

erre ene a

0 1
  C     -767.343    -899.144     211.670
  O     -766.100    -898.634     211.259
  P     -766.023    -897.334     210.303
  C     -766.961    -896.684     207.925
  O     -766.802    -897.674     208.943
  C     -767.148    -897.394     206.591
  O     -768.494    -897.914     206.480
  C     -766.924    -896.434     205.424
  O     -765.591    -896.504     204.955
  C     -767.951    -896.894     204.401
  O     -767.444    -898.044     203.669
  C     -769.125    -897.324     205.322
  N     -770.065    -896.274     205.778
  C     -770.691    -895.464     204.860
  O     -770.566    -895.564     203.644
  N     -771.491    -894.464     205.387
  C     -771.737    -894.274     206.727
  O     -772.242    -893.264     207.201
  C     -771.256    -895.334     207.624
  C     -770.424    -896.244     207.134
  O     -764.488    -897.304     209.846
  O     -766.454    -896.044     210.927
  H     -767.462    -898.784     204.269
  H     -763.984    -896.674     210.381
  H     -771.859    -893.774     204.747
  H     -771.556    -895.284     208.687
  H     -770.044    -897.024     207.784
  H     -769.738    -898.114     204.826
  H     -768.145    -896.124     203.666
  H     -767.166    -895.404     205.726
  H     -766.441    -898.214     206.524
  H     -766.093    -896.024     207.903
  H     -767.846    -896.054     208.164
  P     -764.894    -895.204     204.306
  C     -765.831    -893.464     202.664
  O     -765.799    -894.834     203.039
  O     -763.424    -895.324     204.051
  O     -765.223    -894.044     205.380
  H     -764.454    -893.914     205.978
  H     -766.329    -893.374     201.697
  H     -764.820    -893.064     202.610
  H     -766.409    -892.914     203.437
  H     -767.189    -900.000     212.293
  H     -767.914    -899.427     210.811
  H     -767.872    -898.394     212.219

 3  4  5  6  7  8  9  10  11  12  13  23  28  29  30  31  32 0
 6-311+G(2d,p)
 ****
 33  34 0
 6-311+G(2d,p)
 ****
 1  2  14  15  16  17  18  19  20  21  22  24  25  26  27 0
 3-21G
 ****
 35  36  37  38  39  40  41  42  43  44  45 0
 3-21G
 ****


