%nproc=1
%NoSave
%Mem=1900MB
#P OB98/GEN NMR

erre ene a

0 1
  C     -102.829     238.159       4.153
  O     -101.419     237.940       4.173
  P     -100.483     238.971       4.970
  C      -99.398     237.268       6.560
  O      -99.184     238.187       5.499
  C      -98.326     236.169       6.607
  O      -98.489     235.239       5.506
  C      -96.883     236.693       6.550
  O      -96.094     235.837       7.383
  C      -96.526     236.502       5.091
  O      -95.126     236.520       4.865
  C      -97.228     235.170       4.808
  N      -97.411     234.925       3.386
  C      -96.444     234.153       2.741
  O      -95.435     233.796       3.348
  N      -96.635     233.835       1.418
  C      -97.621     234.368       0.766
  N      -97.787     234.012      -0.537
  C      -98.558     235.333       1.372
  C      -98.411     235.543       2.678
  O     -101.176     239.804       5.996
  O      -99.884     239.887       3.796
  H      -94.687     235.952       5.533
  H      -99.777     240.799       4.133
  H      -99.315     235.815       0.769
  H      -99.052     236.227       3.215
  H      -96.665     234.331       5.236
  H      -96.974     237.305       4.494
  H      -96.781     237.725       6.902
  H      -98.471     235.600       7.537
  H      -97.121     233.369      -0.945
  H     -100.380     236.804       6.439
  H      -98.562     234.345      -1.097
  H      -99.441     237.819       7.507
  P      -94.832     236.453       8.162
  C      -94.865     234.842      10.201
  O      -94.183     235.289       9.051
  O      -95.551     237.358       9.279
  O      -93.901     237.291       7.349
  H      -94.942     238.070       9.549
  H      -94.439     233.885      10.513
  H      -95.931     234.695      10.001
  H      -94.738     235.564      11.013
  H     -103.302     237.387       3.583
  H     -103.036     239.109       3.707
  H     -103.206     238.145       5.154

 3  4  5  6  7  8  9  10  11  12  13  23  27  28  29  30  32 0
 6-311+G(2d,p)
 ****
 34  35 0
 6-311+G(2d,p)
 ****
 1  2  14  15  16  17  18  19  20  21  22  24  25  26 0
 3-21G
 ****
 31  33  36  37  38  39  40  41  42  43  44  45  46 0
 3-21G
 ****


