%nproc=1
%NoSave
%Mem=1900MB
#P OB98/GEN NMR

erre ene a

0 1
  C      199.566    -620.405     256.975
  O      200.279    -621.574     257.335
  H      200.205    -619.534     257.152
  H      198.664    -620.296     257.586
  H      199.296    -620.434     255.918
  P      199.499    -622.974     257.315
  C      201.054    -623.904     255.471
  O      199.723    -623.571     255.846
  C      201.163    -625.405     255.212
  O      200.059    -625.853     254.401
  C      202.426    -625.791     254.453
  O      203.555    -625.760     255.299
  C      202.034    -627.160     253.925
  O      202.178    -628.166     254.932
  C      200.544    -626.937     253.573
  N      200.335    -626.648     252.155
  C      200.680    -627.671     251.267
  O      201.126    -628.741     251.684
  N      200.529    -627.444     249.918
  C      200.063    -626.307     249.501
  N      199.939    -626.147     248.158
  C      199.677    -625.215     250.411
  C      199.839    -625.447     251.710
  O      198.069    -622.955     257.765
  O      200.404    -623.922     258.235
  H      201.999    -629.016     254.489
  H      200.121    -623.865     259.167
  H      199.285    -624.283     250.017
  H      199.576    -624.693     252.442
  H      199.952    -627.823     253.834
  H      202.647    -627.451     253.075
  H      202.567    -625.124     253.591
  H      201.109    -625.927     256.174
  H      200.229    -626.923     247.571
  H      201.711    -623.614     256.301
  H      199.513    -625.343     247.726
  H      201.356    -623.346     254.577
  P      205.002    -625.387     254.716
  C      205.286    -623.181     256.027
  O      205.067    -623.781     254.752
  O      205.346    -626.011     253.408
  O      205.989    -625.807     255.903
  H      206.095    -626.789     255.956
  H      205.309    -622.117     255.921
  H      206.219    -623.520     256.425
  H      204.494    -623.456     256.692

 6  7  8  9  10  11  12  13  14  15  16  26  30  31  32  33  35 0
 6-311+G(2d,p)
 ****
 37  38 0
 6-311+G(2d,p)
 ****
 1  2  3  4  5  17  18  19  20  21  22  23  24  25 0
 3-21G
 ****
 27  28  29  34  36  39  40  41  42  43  44  45  46 0
 3-21G
 ****


