%nproc=1
%NoSave
%Mem=1900MB
#P OB98/GEN NMR

erre ene a

0 1
  C     -238.328     511.082     177.370
  O     -239.659     511.217     176.915
  H     -238.104     510.017     177.480
  H     -238.201     511.569     178.339
  H     -237.633     511.511     176.642
  P     -240.274     512.692     176.781
  C     -241.113     512.122     174.404
  O     -241.449     512.603     175.696
  C     -242.352     512.071     173.500
  O     -243.120     510.872     173.822
  C     -243.296     513.274     173.670
  O     -243.945     513.489     172.413
  C     -244.276     512.740     174.698
  O     -245.427     513.547     174.776
  C     -244.447     511.303     174.198
  N     -245.039     510.430     175.199
  C     -246.400     510.632     175.467
  O     -247.019     511.520     174.886
  N     -247.004     509.849     176.416
  C     -246.303     508.986     177.085
  N     -246.966     508.250     178.019
  C     -244.857     508.780     176.868
  C     -244.294     509.529     175.917
  O     -239.287     513.787     176.549
  O     -241.065     512.905     178.156
  H     -246.005     513.260     175.519
  H     -240.562     513.501     178.739
  H     -244.316     508.060     177.464
  H     -243.237     509.449     175.688
  H     -245.070     511.274     173.294
  H     -243.826     512.742     175.698
  H     -242.775     514.181     173.992
  H     -242.029     511.970     172.457
  H     -247.951     508.429     178.138
  H     -240.699     511.115     174.524
  H     -246.520     507.564     178.608
  H     -240.353     512.765     173.945
  P     -243.411     514.539     171.324
  C     -243.342     513.263     169.081
  O     -244.050     514.192     169.894
  O     -241.923     514.686     171.303
  O     -244.107     515.929     171.712
  H     -243.512     516.662     171.461
  H     -243.870     513.119     168.161
  H     -243.261     512.328     169.595
  H     -242.363     513.643     168.875

 6  7  8  9  10  11  12  13  14  15  16  26  30  31  32  33  35 0
 6-311+G(2d,p)
 ****
 37  38 0
 6-311+G(2d,p)
 ****
 1  2  3  4  5  17  18  19  20  21  22  23  24  25 0
 3-21G
 ****
 27  28  29  34  36  39  40  41  42  43  44  45  46 0
 3-21G
 ****


