%nproc=1
%NoSave
%Mem=1900MB
#P OB98/GEN NMR

erre ene a

0 1
  C       69.391     200.183     -58.086
  O       69.482     199.414     -56.908
  H       68.427     199.978     -58.560
  H       70.183     199.906     -58.786
  H       69.449     201.249     -57.857
  P       70.821     199.485     -56.025
  C       69.439     200.689     -54.229
  O       70.609     200.737     -55.034
  C       69.782     200.874     -52.750
  O       70.528     199.720     -52.277
  C       70.630     202.121     -52.463
  O       70.083     202.833     -51.352
  C       71.988     201.550     -52.085
  O       72.756     202.432     -51.271
  C       71.573     200.230     -51.430
  N       72.691     199.304     -51.306
  C       73.398     199.349     -50.101
  O       73.062     200.135     -49.214
  N       74.498     198.547     -49.949
  C       74.888     197.798     -50.933
  N       76.003     197.048     -50.727
  C       74.187     197.740     -52.232
  C       73.105     198.509     -52.347
  O       72.087     199.510     -56.813
  O       70.725     198.233     -55.033
  H       72.620     203.350     -51.593
  H       71.631     198.002     -54.720
  H       74.556     197.104     -53.023
  H       72.526     198.534     -53.264
  H       71.149     200.402     -50.432
  H       72.563     201.349     -52.998
  H       70.703     202.796     -53.316
  H       68.846     200.890     -52.176
  H       76.456     197.123     -49.824
  H       68.943     199.725     -54.389
  H       76.414     196.448     -51.426
  H       68.770     201.495     -54.543
  P       70.373     204.411     -51.307
  C       67.929     205.270     -51.439
  O       69.186     205.154     -52.089
  O       71.639     204.580     -52.273
  O       70.656     204.925     -49.935
  H       72.428     204.808     -51.746
  H       67.243     205.785     -52.079
  H       68.048     205.819     -50.528
  H       67.549     204.294     -51.220

 6  7  8  9  10  11  12  13  14  15  16  26  30  31  32  33  35 0
 6-311+G(2d,p)
 ****
 37  38 0
 6-311+G(2d,p)
 ****
 1  2  3  4  5  17  18  19  20  21  22  23  24  25 0
 3-21G
 ****
 27  28  29  34  36  39  40  41  42  43  44  45  46 0
 3-21G
 ****


