%nproc=1
%NoSave
%Mem=1900MB
#P OB98/GEN NMR

erre ene a

0 1
  C      690.309    -346.502     511.494
  O      689.687    -345.338     511.001
  H      689.601    -347.029     512.148
  H      691.187    -346.240     512.084
  H      690.589    -347.171     510.678
  P      690.450    -344.469     509.891
  C      691.490    -343.255     511.916
  O      691.708    -343.791     510.613
  C      692.463    -342.098     512.174
  O      693.802    -342.500     511.819
  C      692.170    -340.857     511.350
  O      691.055    -340.144     511.853
  C      693.503    -340.127     511.452
  O      693.603    -339.406     512.681
  C      694.506    -341.303     511.426
  N      695.128    -341.462     510.111
  C      696.165    -340.570     509.808
  O      696.566    -339.701     510.575
  N      696.684    -340.685     508.551
  C      696.203    -341.478     507.554
  O      696.533    -341.355     506.373
  C      695.161    -342.435     507.947
  C      694.678    -342.373     509.191
  O      689.597    -343.534     509.100
  O      691.133    -345.578     508.947
  H      690.602    -345.676     508.133
  H      693.780    -340.063     513.372
  H      697.409    -340.004     508.308
  H      694.794    -343.128     507.194
  H      693.880    -343.045     509.497
  H      695.302    -341.139     512.173
  H      693.637    -339.425     510.638
  H      692.002    -341.134     510.301
  H      692.441    -341.870     513.251
  H      691.665    -344.047     512.652
  H      690.452    -342.914     511.987
  P      689.890    -339.650     510.859
  C      691.778    -338.387     509.651
  O      690.580    -339.137     509.500
  O      688.907    -338.705     511.465
  O      689.181    -341.006     510.406
  H      688.217    -340.915     510.520
  H      692.144    -338.101     508.687
  H      692.513    -338.985     510.149
  H      691.579    -337.510     510.231

 6  7  8  9  10  11  12  13  14  15  16  27  31  32  33  34  35 0
 6-311+G(2d,p)
 ****
 36  37 0
 6-311+G(2d,p)
 ****
 1  2  3  4  5  17  18  19  20  21  22  23  24  25 0
 3-21G
 ****
 26  28  29  30  38  39  40  41  42  43  44  45 0
 3-21G
 ****


