%nproc=1
%NoSave
%Mem=1900MB
#P OB98/GEN NMR

erre ene a

0 1
  C      120.831     281.783     597.192
  O      119.610     282.061     597.854
  P      119.040     281.076     599.008
  C      117.786     279.359     597.526
  O      118.954     279.639     598.304
  C      117.568     277.850     597.438
  O      118.690     277.226     596.777
  C      117.456     277.152     598.797
  O      116.179     277.378     599.387
  C      117.759     275.706     598.401
  O      116.596     275.096     597.831
  C      118.833     275.900     597.319
  N      120.201     275.680     597.816
  C      120.459     274.456     598.422
  O      119.568     273.589     598.526
  N      121.724     274.188     598.886
  C      122.655     275.099     598.778
  N      123.903     274.764     599.189
  C      122.409     276.437     598.196
  C      121.176     276.650     597.730
  O      117.785     281.541     599.655
  O      120.269     280.897     600.017
  H      116.358     275.631     597.047
  H      120.306     281.586     600.724
  H      123.209     277.165     598.139
  H      120.914     277.603     597.277
  H      118.661     275.211     596.477
  H      118.088     275.083     599.244
  H      118.237     277.517     599.480
  H      116.667     277.672     596.844
  H      124.063     273.796     599.422
  H      117.945     279.753     596.517
  H      124.725     275.282     598.875
  H      116.928     279.857     597.975
  P      116.153     277.818     600.930
  C      115.984     275.243     601.221
  O      116.415     276.474     601.780
  O      114.607     278.146     601.178
  O      117.040     278.965     601.266
  H      114.443     279.118     601.169
  H      116.453     274.422     601.795
  H      116.297     275.161     600.172
  H      114.886     275.149     601.307
  H      121.028     282.549     596.471
  H      120.761     280.837     596.698
  H      121.626     281.754     597.908

 3  4  5  6  7  8  9  10  11  12  13  23  27  28  29  30  32 0
 6-311+G(2d,p)
 ****
 34  35 0
 6-311+G(2d,p)
 ****
 1  2  14  15  16  17  18  19  20  21  22  24  25  26 0
 3-21G
 ****
 31  33  36  37  38  39  40  41  42  43  44  45  46 0
 3-21G
 ****


