%nproc=1
%NoSave
%Mem=1900MB
#P OB98/GEN NMR

erre ene a

0 1
  C      -48.138    -319.271     -84.876
  O      -47.487    -320.513     -84.670
  P      -47.319    -321.118     -83.201
  C      -45.770    -323.043     -84.088
  O      -45.989    -321.997     -83.166
  C      -44.384    -323.649     -83.830
  O      -43.354    -322.710     -84.196
  C      -44.194    -324.009     -82.358
  O      -44.515    -325.371     -82.130
  C      -42.730    -323.685     -82.124
  O      -41.896    -324.764     -82.584
  C      -42.540    -322.439     -83.023
  N      -42.938    -321.126     -82.483
  C      -42.337    -320.648     -81.323
  O      -41.454    -321.244     -80.716
  N      -42.812    -319.444     -80.859
  C      -43.770    -318.682     -81.460
  O      -44.349    -317.747     -80.919
  C      -44.162    -319.104     -82.806
  C      -43.754    -320.296     -83.240
  O      -48.485    -322.210     -83.125
  O      -47.404    -320.130     -82.085
  H      -40.978    -324.539     -82.348
  H      -49.262    -321.854     -82.655
  H      -42.477    -319.160     -79.944
  H      -44.814    -318.457     -83.379
  H      -44.066    -320.647     -84.221
  H      -41.500    -322.350     -83.353
  H      -42.517    -323.568     -81.064
  H      -44.804    -323.350     -81.725
  H      -44.266    -324.542     -84.458
  H      -45.835    -322.662     -85.111
  H      -46.544    -323.809     -83.977
  P      -45.366    -325.777     -80.838
  C      -44.028    -327.954     -81.026
  O      -44.549    -326.973     -80.152
  O      -46.815    -326.046     -81.079
  O      -45.149    -324.534     -79.850
  H      -45.912    -323.922     -79.912
  H      -43.350    -328.603     -80.464
  H      -43.475    -327.485     -81.845
  H      -44.845    -328.560     -81.428
  H      -48.148    -319.043     -85.921
  H      -47.614    -318.502     -84.348
  H      -49.143    -319.331     -84.514

 3  4  5  6  7  8  9  10  11  12  13  23  28  29  30  31  32 0
 6-311+G(2d,p)
 ****
 33  34 0
 6-311+G(2d,p)
 ****
 1  2  14  15  16  17  18  19  20  21  22  24  25  26  27 0
 3-21G
 ****
 35  36  37  38  39  40  41  42  43  44  45 0
 3-21G
 ****


