%nproc=1
%NoSave
%Mem=1900MB
#P OB98/GEN NMR

erre ene a

0 1
  C      894.504     147.879    -250.000
  O      895.427     148.943    -250.299
  P      896.063     149.893    -249.180
  C      894.194     151.665    -249.078
  O      895.541     151.402    -249.406
  C      893.449     152.370    -250.220
  O      894.297     153.438    -250.779
  C      893.049     151.449    -251.382
  O      891.756     151.894    -251.829
  C      894.117     151.749    -252.420
  O      893.772     151.360    -253.735
  C      894.260     153.270    -252.217
  N      895.440     153.872    -252.831
  C      895.473     153.956    -254.233
  O      894.565     153.503    -254.920
  N      896.549     154.582    -254.830
  C      897.516     155.032    -254.098
  N      898.546     155.633    -254.758
  C      897.546     154.948    -252.627
  C      896.482     154.369    -252.067
  O      897.555     149.796    -249.092
  O      895.394     149.453    -247.798
  H      896.045     149.528    -247.086
  H      894.467     151.709    -254.339
  H      898.366     155.349    -252.061
  H      896.405     154.278    -250.986
  H      893.352     153.762    -252.577
  H      895.039     151.212    -252.142
  H      892.979     150.389    -251.105
  H      892.568     152.871    -249.802
  H      898.501     155.685    -255.771
  H      894.165     152.312    -248.180
  H      899.341     156.041    -254.296
  H      893.689     150.716    -248.821
  P      890.428     151.392    -251.059
  C      889.572     149.609    -252.739
  O      889.385     150.883    -252.164
  O      889.777     152.786    -250.609
  O      890.654     150.523    -249.861
  H      889.218     152.649    -249.811
  H      888.608     149.093    -252.779
  H      890.261     148.980    -252.178
  H      889.947     149.717    -253.767
  H      894.220     147.388    -250.907
  H      893.634     148.284    -249.526
  H      894.972     147.175    -249.345

 3  4  5  6  7  8  9  10  11  12  13  24  27  28  29  30  32 0
 6-311+G(2d,p)
 ****
 34  35 0
 6-311+G(2d,p)
 ****
 1  2  14  15  16  17  18  19  20  21  22  23  25  26 0
 3-21G
 ****
 31  33  36  37  38  39  40  41  42  43  44  45  46 0
 3-21G
 ****


