%nproc=1
%NoSave
%Mem=1900MB
#P OB98/GEN NMR

erre ene a

0 1
  C      -37.521     267.532      77.954
  O      -37.655     268.939      77.886
  P      -38.404     269.555      76.608
  C      -37.911     269.493      74.049
  O      -37.392     269.454      75.370
  C      -37.086     270.458      73.196
  O      -37.235     271.810      73.677
  C      -35.589     270.173      73.231
  O      -35.248     269.092      72.384
  C      -35.012     271.508      72.779
  O      -35.015     271.608      71.344
  C      -36.005     272.513      73.397
  N      -35.471     273.168      74.585
  C      -34.768     274.351      74.363
  O      -34.579     274.816      73.238
  N      -34.254     274.960      75.476
  C      -34.323     274.486      76.755
  O      -33.794     275.050      77.705
  C      -35.052     273.218      76.922
  C      -35.578     272.626      75.852
  O      -38.467     271.123      76.923
  O      -39.757     268.986      76.347
  H      -34.656     272.491      71.126
  H      -39.300     271.496      76.575
  H      -33.762     275.829      75.340
  H      -35.128     272.815      77.924
  H      -36.107     271.684      75.952
  H      -36.261     273.288      72.663
  H      -33.977     271.642      73.106
  H      -35.270     269.978      74.265
  H      -37.459     270.420      72.165
  H      -38.953     269.824      74.079
  H      -37.883     268.485      73.624
  P      -34.094     268.098      72.903
  C      -31.623     268.515      73.645
  O      -32.776     269.004      72.991
  O      -33.887     267.182      71.606
  O      -34.475     267.356      74.138
  H      -34.038     267.672      70.779
  H      -31.501     267.437      73.489
  H      -31.696     268.723      74.713
  H      -30.745     269.029      73.243
  H      -37.006     267.266      78.853
  H      -36.965     267.185      77.108
  H      -38.491     267.081      77.952

 3  4  5  6  7  8  9  10  11  12  13  23  28  29  30  31  32 0
 6-311+G(2d,p)
 ****
 33  34 0
 6-311+G(2d,p)
 ****
 1  2  14  15  16  17  18  19  20  21  22  24  25  26 0
 3-21G
 ****
 27  35  36  37  38  39  40  41  42  43  44  45 0
 3-21G
 ****


