%nproc=1
%NoSave
%Mem=1900MB
#P OB98/GEN NMR

erre ene a

0 1
  C      -18.895      65.909     743.268
  O      -20.181      66.352     743.639
  H      -18.158      66.386     743.917
  H      -18.686      66.198     742.233
  H      -18.813      64.824     743.374
  P      -21.439      65.659     742.915
  C      -21.381      67.331     740.929
  O      -21.299      65.975     741.348
  C      -21.559      67.409     739.411
  O      -22.714      66.614     739.032
  C      -21.771      68.834     738.891
  O      -21.084      68.974     737.644
  C      -23.272      68.906     738.652
  O      -23.629      69.880     737.674
  C      -23.593      67.455     738.265
  N      -24.996      67.137     738.505
  C      -25.938      67.762     737.681
  O      -25.567      68.551     736.808
  N      -27.271      67.527     737.900
  C      -27.640      66.804     738.910
  N      -28.976      66.634     739.092
  C      -26.686      66.179     739.842
  C      -25.397      66.379     739.582
  O      -22.674      66.574     743.363
  O      -21.650      64.219     743.241
  H      -23.112      70.695     737.849
  H      -23.493      66.048     743.440
  H      -27.044      65.603     740.689
  H      -24.619      65.965     740.217
  H      -23.373      67.286     737.198
  H      -23.780      69.170     739.589
  H      -21.428      69.607     739.585
  H      -20.680      66.946     738.937
  H      -29.599      67.099     738.435
  H      -20.459      67.846     741.209
  H      -29.378      66.131     739.868
  H      -22.224      67.816     741.438
  P      -19.560      69.465     737.713
  C      -20.166      71.982     737.940
  O      -19.520      70.852     738.516
  O      -19.239      69.886     736.205
  O      -18.616      68.415     738.203
  H      -18.633      69.233     735.794
  H      -20.054      72.826     738.588
  H      -21.206      71.769     737.808
  H      -19.724      72.200     736.990

 6  7  8  9  10  11  12  13  14  15  16  26  30  31  32  33  35 0
 6-311+G(2d,p)
 ****
 37  38 0
 6-311+G(2d,p)
 ****
 1  2  3  4  5  17  18  19  20  21  22  23  24  25 0
 3-21G
 ****
 27  28  29  34  36  39  40  41  42  43  44  45  46 0
 3-21G
 ****


