%nproc=1
%NoSave
%Mem=1900MB
#P OB98/GEN NMR

erre ene a

0 1
  C     -870.547     429.259     666.454
  O     -870.389     429.344     665.039
  P     -871.678     429.706     664.153
  C     -871.550     432.300     663.992
  O     -871.388     431.053     663.339
  C     -871.025     433.449     663.121
  O     -869.685     433.163     662.649
  C     -871.851     433.702     661.870
  O     -872.984     434.499     662.148
  C     -870.847     434.475     661.009
  O     -870.801     435.853     661.435
  C     -869.529     433.776     661.344
  N     -866.758     432.723     657.154
  C     -866.956     433.876     657.844
  N     -867.712     434.078     658.945
  C     -868.309     432.929     659.321
  C     -868.210     431.691     658.719
  C     -867.388     431.608     657.575
  N     -867.204     430.427     656.886
  N     -868.981     430.758     659.382
  C     -869.514     431.417     660.392
  N     -869.143     432.741     660.389
  O     -872.745     430.180     665.256
  O     -872.202     428.566     663.346
  H     -871.697     436.223     661.297
  H     -873.651     429.911     664.982
  H     -866.417     434.733     657.466
  H     -870.174     431.000     661.131
  H     -868.684     434.482     661.403
  H     -871.114     434.477     659.956
  H     -872.106     432.760     661.364
  H     -870.989     434.354     663.736
  H     -871.036     432.296     664.968
  H     -866.583     430.444     656.090
  H     -867.657     429.581     657.205
  H     -872.625     432.447     664.210
  P     -874.350     434.114     661.406
  C     -875.533     433.200     663.551
  O     -875.491     434.199     662.539
  O     -874.185     432.543     661.155
  O     -874.619     434.872     660.154
  H     -874.668     432.292     660.331
  H     -876.146     433.566     664.376
  H     -874.522     432.991     663.926
  H     -875.980     432.275     663.154
  H     -869.608     429.012     666.904
  H     -871.265     428.501     666.688
  H     -870.887     430.201     666.832

 3  4  5  6  7  8  9  10  11  12  22  25  29  30  31  32 0
 6-311+G(2d,p)
 ****
 33  36  37 0
 6-311+G(2d,p)
 ****
 1  2  13  14  15  16  17  18  19  20  21  23  24  26 0
 3-21G
 ****
 27  28  34  35  38  39  40  41  42  43  44  45  46  47  48 0
 3-21G
 ****


