%nproc=1
%NoSave
%Mem=1900MB
#P OB98/GEN NMR

erre ene a

0 1
  C      449.345     417.980     498.620
  O      450.498     417.258     498.231
  H      449.246     418.851     497.972
  H      449.436     418.320     499.653
  H      448.452     417.356     498.510
  P      450.934     415.987     499.104
  C      452.824     417.490     500.034
  O      452.466     416.216     499.515
  C      454.286     417.498     500.498
  O      454.410     416.643     501.670
  C      455.276     416.974     499.444
  O      456.527     417.641     499.661
  C      455.379     415.512     499.835
  O      456.477     414.888     499.212
  C      455.392     415.629     501.358
  N      455.108     414.367     502.024
  C      456.049     413.351     501.852
  O      457.049     413.539     501.163
  N      455.820     412.135     502.445
  C      454.715     411.933     503.092
  N      454.542     410.699     503.643
  C      453.665     412.964     503.247
  C      453.925     414.146     502.696
  O      450.640     414.653     498.506
  O      450.156     416.188     500.491
  H      456.672     414.018     499.637
  H      449.400     415.571     500.537
  H      452.752     412.738     503.778
  H      453.216     414.966     502.753
  H      456.366     415.998     501.713
  H      454.487     414.964     499.507
  H      454.932     417.131     498.419
  H      454.548     418.516     500.816
  H      455.280     410.021     503.503
  H      452.162     417.697     500.879
  H      453.713     410.422     504.148
  H      452.675     418.263     499.273
  P      456.781     419.170     499.231
  C      458.838     418.677     497.758
  O      458.336     419.366     498.895
  O      456.232     420.165     500.201
  O      456.066     419.324     497.805
  H      455.746     420.243     497.708
  H      459.880     418.890     497.644
  H      458.311     418.999     496.884
  H      458.701     417.624     497.890

 6  7  8  9  10  11  12  13  14  15  16  26  30  31  32  33  35 0
 6-311+G(2d,p)
 ****
 37  38 0
 6-311+G(2d,p)
 ****
 1  2  3  4  5  17  18  19  20  21  22  23  24  25 0
 3-21G
 ****
 27  28  29  34  36  39  40  41  42  43  44  45  46 0
 3-21G
 ****


