%nproc=1
%NoSave
%Mem=1900MB
#P OB98/GEN NMR

erre ene a

0 1
  C      -90.552      12.630      27.350
  O      -91.613      13.094      28.190
  P      -91.217      14.046      29.421
  C      -89.825      13.541      31.575
  O      -90.733      13.066      30.597
  C      -89.767      12.588      32.775
  O      -91.025      12.651      33.513
  C      -89.515      11.121      32.408
  O      -88.675      10.574      33.434
  C      -90.901      10.508      32.477
  O      -90.852       9.101      32.663
  C      -91.499      11.295      33.648
  N      -92.958      11.238      33.682
  C      -93.532      10.252      34.474
  O      -92.869       9.402      35.066
  N      -94.899      10.246      34.526
  C      -95.730      11.063      33.815
  O      -96.952      11.015      33.900
  C      -95.068      12.011      32.906
  C      -93.734      12.051      32.882
  O      -92.652      14.561      29.896
  O      -90.250      15.118      29.041
  H      -93.349      13.886      29.828
  H      -91.761       8.764      32.799
  H      -95.335       9.558      35.122
  H      -95.694      12.635      32.283
  H      -93.215      12.721      32.209
  H      -91.117      10.911      34.602
  H      -91.449      10.717      31.552
  H      -89.033      11.004      31.433
  H      -88.978      12.943      33.450
  H      -90.138      14.529      31.924
  H      -88.836      13.663      31.119
  P      -87.148      10.226      33.063
  C      -85.958       8.108      32.087
  O      -87.158       8.816      32.303
  O      -86.587       9.845      34.517
  O      -86.384      11.336      32.421
  H      -87.169       9.240      35.003
  H      -86.203       7.089      31.778
  H      -85.358       8.059      32.999
  H      -85.382       8.588      31.292
  H      -90.955      12.010      26.576
  H      -89.856      12.065      27.934
  H      -90.052      13.468      26.912

 3  4  5  6  7  8  9  10  11  12  13  24  28  29  30  31  32 0
 6-311+G(2d,p)
 ****
 33  34 0
 6-311+G(2d,p)
 ****
 1  2  14  15  16  17  18  19  20  21  22  23  25  26  27 0
 3-21G
 ****
 35  36  37  38  39  40  41  42  43  44  45 0
 3-21G
 ****


