%nproc=1
%NoSave
%Mem=1900MB
#P OB98/GEN NMR

erre ene a

0 1
  C      -95.370     450.257     122.930
  O      -94.324     449.706     122.162
  H      -96.058     450.777     122.261
  H      -94.960     450.978     123.643
  H      -95.922     449.482     123.468
  P      -93.441     448.531     122.793
  C      -91.048     449.326     122.236
  O      -92.089     448.404     121.934
  C      -89.676     448.774     121.854
  O      -89.426     447.551     122.580
  C      -89.573     448.432     120.364
  O      -89.188     449.517     119.536
  C      -88.508     447.339     120.364
  O      -87.188     447.896     120.264
  C      -88.702     446.656     121.724
  N      -88.917     441.726     123.069
  C      -87.900     442.640     123.280
  N      -86.796     442.162     123.894
  N      -87.966     443.891     122.906
  C      -89.090     444.194     122.219
  C      -90.155     443.370     121.930
  C      -90.107     442.005     122.413
  O      -90.986     441.164     122.265
  N      -91.103     444.018     121.175
  C      -90.570     445.199     120.936
  N      -89.387     445.380     121.615
  O      -94.239     447.202     122.378
  O      -93.255     448.592     124.279
  H      -87.086     448.562     120.971
  H      -94.115     446.520     123.063
  H      -88.820     440.785     123.404
  H      -91.015     445.976     120.321
  H      -87.738     446.458     122.210
  H      -88.635     446.672     119.508
  H      -86.656     441.192     124.123
  H      -90.510     447.997     120.002
  H      -85.958     442.748     123.898
  H      -88.900     449.490     122.157
  H      -91.094     449.505     123.311
  H      -91.230     450.282     121.736
  P      -90.062     449.933     118.267
  C      -88.219     449.725     116.408
  O      -89.089     450.544     117.161
  O      -90.875     451.209     118.788
  O      -90.969     448.872     117.737
  H      -91.780     450.956     119.058
  H      -87.659     450.331     115.727
  H      -88.791     449.007     115.858
  H      -87.548     449.216     117.068

 6  7  8  9  10  11  12  13  14  15  26  29  33  34 0
 6-311+G(2d,p)
 ****
 36  38  39  40  41 0
 6-311+G(2d,p)
 ****
 1  2  3  4  5  16  17  18  19  20  21  22  23  24  25 0
 3-21G
 ****
 27  28  30  31  32  35  37  42  43  44  45  46  47 0
 3-21G
 ****
 48  49 0
 3-21G
 ****


