%nproc=1
%NoSave
%Mem=1900MB
#P OB98/GEN NMR

erre ene a

0 1
  C      -48.489     373.968       9.223
  O      -48.500     373.850       7.810
  P      -49.718     373.059       7.137
  C      -50.723     370.699       7.618
  O      -49.564     371.514       7.539
  C      -50.522     369.430       6.788
  O      -50.285     369.767       5.406
  C      -49.322     368.601       7.226
  O      -49.613     367.832       8.376
  C      -49.060     367.760       5.980
  O      -49.917     366.605       5.953
  C      -49.433     368.740       4.848
  N      -48.258     369.306       4.191
  C      -48.202     369.156       2.809
  O      -49.072     368.563       2.165
  N      -47.097     369.675       2.191
  C      -46.033     370.269       2.816
  O      -45.042     370.664       2.212
  C      -46.135     370.372       4.282
  C      -47.218     369.892       4.892
  O      -49.372     373.081       5.574
  O      -51.066     373.634       7.419
  H      -49.864     366.197       6.839
  H      -50.198     373.155       5.054
  H      -47.048     369.598       1.189
  H      -45.313     370.839       4.805
  H      -47.307     369.946       5.970
  H      -50.038     368.225       4.089
  H      -48.029     367.395       5.936
  H      -48.455     369.257       7.399
  H      -51.441     368.829       6.840
  H      -51.583     371.259       7.241
  H      -50.910     370.445       8.668
  P      -48.413     367.617       9.429
  C      -46.049     366.530       9.174
  O      -47.364     366.671       8.674
  O      -49.130     366.672      10.505
  O      -47.881     368.898       9.978
  H      -49.790     366.084      10.099
  H      -46.033     366.549      10.269
  H      -45.423     367.336       8.783
  H      -45.644     365.573       8.834
  H      -47.623     374.517       9.528
  H      -48.466     372.993       9.662
  H      -49.370     374.484       9.545

 3  4  5  6  7  8  9  10  11  12  13  23  28  29  30  31  32 0
 6-311+G(2d,p)
 ****
 33  34 0
 6-311+G(2d,p)
 ****
 1  2  14  15  16  17  18  19  20  21  22  24  25  26 0
 3-21G
 ****
 27  35  36  37  38  39  40  41  42  43  44  45 0
 3-21G
 ****


