%nproc=1
%NoSave
%Mem=1900MB
#P OB98/GEN NMR

erre ene a

0 1
  C      376.207    -485.856    -450.687
  O      377.013    -486.256    -451.789
  P      377.237    -485.189    -452.970
  C      375.139    -485.611    -454.446
  O      376.533    -485.831    -454.269
  C      374.673    -486.166    -455.794
  O      375.345    -485.482    -456.864
  C      374.977    -487.646    -456.001
  O      374.007    -488.480    -455.387
  C      374.881    -487.745    -457.514
  O      373.495    -487.804    -457.913
  C      375.498    -486.419    -457.966
  N      378.851    -488.604    -461.152
  C      377.515    -488.745    -461.011
  N      376.693    -488.135    -460.136
  C      377.384    -487.330    -459.310
  C      378.755    -487.113    -459.309
  C      379.507    -487.782    -460.297
  N      380.860    -487.618    -460.451
  N      379.102    -486.224    -458.318
  C      377.976    -485.901    -457.737
  N      376.900    -486.536    -458.310
  O      378.800    -485.329    -453.291
  O      376.851    -483.786    -452.637
  H      373.105    -488.576    -457.460
  H      379.126    -484.511    -453.715
  H      377.037    -489.441    -461.704
  H      377.869    -485.203    -456.914
  H      374.985    -485.989    -458.826
  H      375.361    -488.640    -457.914
  H      376.001    -487.896    -455.686
  H      373.595    -485.971    -455.884
  H      374.929    -484.537    -454.408
  H      381.289    -487.981    -461.285
  H      381.313    -486.856    -459.945
  H      374.596    -486.093    -453.628
  P      374.552    -489.579    -454.343
  C      375.187    -491.042    -456.395
  O      374.528    -490.966    -455.148
  O      373.351    -489.716    -453.299
  O      375.845    -489.218    -453.693
  H      373.691    -490.025    -452.431
  H      375.346    -492.098    -456.648
  H      376.163    -490.544    -456.363
  H      374.572    -490.592    -457.172
  H      376.144    -486.658    -449.982
  H      375.226    -485.608    -451.034
  H      376.645    -485.001    -450.216

 3  4  5  6  7  8  9  10  11  12  22  25  29  30  31  32 0
 6-311+G(2d,p)
 ****
 33  36  37 0
 6-311+G(2d,p)
 ****
 1  2  13  14  15  16  17  18  19  20  21  23  24  26 0
 3-21G
 ****
 27  28  34  35  38  39  40  41  42  43  44  45  46  47  48 0
 3-21G
 ****


