%nproc=1
%NoSave
%Mem=1900MB
#P OB98/GEN NMR

erre ene a

0 1
  C      219.255     154.283      60.779
  O      220.044     155.429      61.126
  P      221.612     155.519      60.788
  C      223.832     155.066      62.012
  O      222.434     154.795      61.962
  C      224.518     154.293      63.146
  O      223.913     154.604      64.416
  C      224.447     152.774      63.007
  O      225.407     152.314      62.074
  C      224.690     152.334      64.449
  O      226.095     152.352      64.752
  C      223.958     153.425      65.242
  N      220.734     153.041      69.193
  C      222.000     153.503      69.102
  N      222.796     153.569      68.016
  C      222.149     153.113      66.927
  C      220.857     152.609      66.866
  C      220.133     152.579      68.071
  N      218.850     152.094      68.165
  N      220.547     152.215      65.582
  C      221.625     152.494      64.876
  N      222.618     153.040      65.642
  O      222.091     156.899      60.469
  O      221.815     154.544      59.535
  H      226.479     153.132      64.312
  H      222.573     154.849      59.002
  H      222.434     153.866      70.031
  H      221.731     152.325      63.811
  H      224.505     153.700      66.151
  H      224.325     151.322      64.649
  H      223.443     152.470      62.700
  H      225.563     154.624      63.193
  H      223.970     156.141      62.169
  H      218.413     152.076      69.070
  H      218.414     151.704      67.340
  H      224.277     154.787      61.051
  P      224.947     151.865      60.607
  C      223.755     149.848      59.556
  O      224.273     150.414      60.747
  O      225.983     151.983      59.541
  O      223.687     152.808      60.299
  H      223.626     152.959      59.338
  H      222.775     150.282      59.341
  H      223.643     148.770      59.704
  H      224.431     150.023      58.715
  H      218.245     154.436      61.096
  H      219.653     153.416      61.263
  H      219.279     154.142      59.719

 3  4  5  6  7  8  9  10  11  12  22  25  29  30  31  32 0
 6-311+G(2d,p)
 ****
 33  36  37 0
 6-311+G(2d,p)
 ****
 1  2  13  14  15  16  17  18  19  20  21  23  24  26 0
 3-21G
 ****
 27  28  34  35  38  39  40  41  42  43  44  45  46  47  48 0
 3-21G
 ****


