%nproc=1
%NoSave
%Mem=1900MB
#P OB98/GEN NMR

erre ene a

0 1
  C     -298.963     222.739     -37.851
  O     -299.604     221.544     -38.266
  P     -299.123     220.121     -37.708
  C     -301.139     219.494     -36.240
  O     -299.791     219.950     -36.258
  C     -301.344     218.467     -35.130
  O     -300.615     217.263     -35.466
  C     -300.848     218.937     -33.768
  O     -301.722     218.433     -32.754
  C     -299.495     218.263     -33.606
  O     -299.156     218.096     -32.221
  C     -299.715     216.961     -34.383
  N     -295.855     213.643     -33.715
  C     -296.956     213.901     -32.974
  N     -297.927     214.813     -33.199
  C     -297.705     215.463     -34.352
  C     -296.629     215.305     -35.213
  C     -295.669     214.345     -34.854
  N     -294.552     214.075     -35.617
  N     -296.731     216.172     -36.284
  C     -297.853     216.826     -36.080
  N     -298.485     216.424     -34.933
  O     -297.653     219.895     -37.743
  O     -299.912     219.053     -38.597
  H     -299.693     217.348     -31.884
  H     -299.341     218.287     -38.791
  H     -297.074     213.292     -32.080
  H     -298.247     217.599     -36.722
  H     -300.181     216.191     -33.757
  H     -298.719     218.883     -34.069
  H     -300.777     220.028     -33.692
  H     -302.409     218.206     -35.086
  H     -301.357     219.028     -37.207
  H     -293.987     213.290     -35.346
  H     -294.504     214.471     -36.547
  H     -301.810     220.349     -36.107
  P     -301.516     219.045     -31.279
  C     -303.404     220.835     -31.162
  O     -302.040     220.554     -31.388
  O     -300.126     218.838     -30.776
  O     -302.647     218.263     -30.458
  H     -303.377     217.965     -31.045
  H     -303.572     221.903     -31.319
  H     -303.674     220.587     -30.133
  H     -304.031     220.270     -31.858
  H     -299.425     223.577     -38.331
  H     -297.928     222.700     -38.120
  H     -299.052     222.842     -36.790

 3  4  5  6  7  8  9  10  11  12  22  25  29  30  31  32 0
 6-311+G(2d,p)
 ****
 33  36  37 0
 6-311+G(2d,p)
 ****
 1  2  13  14  15  16  17  18  19  20  21  23  24  26 0
 3-21G
 ****
 27  28  34  35  38  39  40  41  42  43  44  45  46  47  48 0
 3-21G
 ****


