%nproc=1
%NoSave
%Mem=1900MB
#P OB98/GEN NMR

erre ene a

0 1
  C       -3.883     184.347      82.050
  O       -5.003     183.920      82.848
  P       -4.995     183.917      84.451
  C       -6.436     185.220      86.164
  O       -6.419     184.461      84.957
  C       -7.865     185.690      86.490
  O       -8.263     186.739      85.566
  C       -8.952     184.630      86.345
  O       -8.920     183.684      87.398
  C      -10.202     185.502      86.317
  O      -10.650     185.833      87.640
  C       -9.715     186.776      85.598
  N      -10.261     186.917      84.258
  C      -11.173     187.965      84.065
  O      -11.538     188.653      85.014
  N      -11.651     188.186      82.789
  C      -11.339     187.371      81.828
  N      -11.830     187.651      80.592
  C      -10.483     186.181      82.023
  C       -9.980     186.023      83.248
  O       -3.830     184.635      85.060
  O       -5.006     182.371      84.875
  H       -4.593     182.271      85.751
  H      -10.725     184.989      88.135
  H      -10.276     185.510      81.205
  H       -9.335     185.184      83.473
  H       -9.967     187.664      86.190
  H      -11.040     185.001      85.810
  H       -8.834     184.124      85.381
  H       -7.864     186.105      87.507
  H      -12.401     188.485      80.490
  H       -5.795     186.096      86.034
  H      -11.625     187.097      79.772
  H       -6.034     184.606      86.981
  P       -8.457     182.197      87.022
  C       -7.945     180.136      88.520
  O       -8.783     181.250      88.271
  O       -6.855     182.287      87.015
  O       -8.974     181.696      85.710
  H       -6.493     181.753      86.283
  H       -7.976     179.904      89.588
  H       -6.909     180.328      88.221
  H       -8.327     179.272      87.962
  H       -4.129     184.258      81.013
  H       -3.034     183.733      82.269
  H       -3.653     185.367      82.275

 3  4  5  6  7  8  9  10  11  12  13  24  27  28  29  30  32 0
 6-311+G(2d,p)
 ****
 34  35 0
 6-311+G(2d,p)
 ****
 1  2  14  15  16  17  18  19  20  21  22  23  25  26 0
 3-21G
 ****
 31  33  36  37  38  39  40  41  42  43  44  45  46 0
 3-21G
 ****


