%nproc=1
%NoSave
%Mem=1900MB
#P OB98/GEN NMR

erre ene a

0 1
  C     -115.260     -27.047     134.949
  O     -116.644     -27.356     134.763
  P     -117.401     -28.360     135.760
  C     -116.666     -30.580     134.709
  O     -116.570     -29.737     135.855
  C     -116.935     -32.051     135.058
  O     -115.774     -32.662     135.677
  C     -118.123     -32.285     136.004
  O     -118.700     -33.537     135.613
  C     -117.438     -32.400     137.354
  O     -118.261     -33.033     138.331
  C     -116.160     -33.161     136.972
  N     -115.097     -32.995     137.960
  C     -114.807     -34.093     138.774
  O     -115.478     -35.127     138.685
  N     -113.801     -33.981     139.705
  C     -113.208     -32.836     139.878
  N     -112.238     -32.782     140.833
  C     -113.540     -31.627     139.098
  C     -114.479     -31.779     138.158
  O     -118.864     -28.539     135.480
  O     -117.184     -27.697     137.207
  H     -117.720     -33.185     139.138
  H     -117.946     -27.918     137.779
  H     -113.036     -30.688     139.294
  H     -114.785     -30.948     137.533
  H     -116.368     -34.238     136.866
  H     -117.187     -31.401     137.732
  H     -118.866     -31.482     135.974
  H     -117.105     -32.584     134.113
  H     -112.059     -33.629     141.363
  H     -115.723     -30.513     134.149
  H     -111.796     -31.918     141.127
  H     -117.460     -30.201     134.053
  P     -120.039     -33.618     134.741
  C     -121.527     -34.591     136.590
  O     -121.266     -33.468     135.762
  O     -120.128     -34.804     133.833
  O     -120.082     -32.243     133.910
  H     -120.699     -32.339     133.163
  H     -122.229     -34.297     137.375
  H     -120.600     -34.952     137.053
  H     -121.971     -35.389     135.993
  H     -114.941     -26.365     134.188
  H     -114.682     -27.946     134.887
  H     -115.121     -26.599     135.911

 3  4  5  6  7  8  9  10  11  12  13  23  27  28  29  30  32 0
 6-311+G(2d,p)
 ****
 34  35 0
 6-311+G(2d,p)
 ****
 1  2  14  15  16  17  18  19  20  21  22  24  25  26 0
 3-21G
 ****
 31  33  36  37  38  39  40  41  42  43  44  45  46 0
 3-21G
 ****


