%nproc=1
%NoSave
%Mem=1900MB
#P OB98/GEN NMR

erre ene a

0 1
  C     -271.737     -18.704    1063.494
  O     -270.635     -19.581    1063.379
  H     -272.428     -19.105    1064.242
  H     -272.259     -18.621    1062.540
  H     -271.397     -17.718    1063.827
  P     -269.513     -19.186    1062.298
  C     -268.066     -18.388    1064.292
  O     -268.634     -18.060    1063.032
  C     -266.747     -17.646    1064.494
  O     -265.723     -18.206    1063.653
  C     -266.807     -16.159    1064.162
  O     -267.322     -15.423    1065.263
  C     -265.332     -15.854    1063.933
  O     -264.675     -15.671    1065.203
  C     -264.821     -17.139    1063.261
  N     -261.861     -16.075    1059.204
  C     -261.690     -15.839    1060.522
  N     -262.544     -16.100    1061.540
  C     -263.665     -16.674    1061.085
  C     -263.984     -16.972    1059.765
  C     -263.011     -16.655    1058.798
  N     -263.190     -16.895    1057.453
  N     -265.229     -17.556    1059.677
  C     -265.638     -17.659    1060.926
  N     -264.743     -17.107    1061.812
  O     -270.017     -18.843    1060.937
  O     -268.557     -20.469    1062.369
  H     -263.715     -15.659    1065.022
  H     -268.450     -20.765    1063.289
  H     -260.749     -15.378    1060.800
  H     -266.553     -18.142    1061.246
  H     -263.820     -17.417    1063.620
  H     -265.174     -14.943    1063.357
  H     -267.360     -15.974    1063.237
  H     -266.431     -17.804    1065.538
  H     -267.893     -19.470    1064.357
  H     -262.539     -16.461    1056.818
  H     -264.103     -17.204    1057.145
  H     -268.786     -18.107    1065.064
  P     -267.938     -13.962    1065.060
  C     -270.209     -14.572    1066.106
  O     -269.520     -14.191    1064.915
  O     -267.301     -13.160    1063.982
  O     -267.809     -13.274    1066.500
  H     -267.908     -12.305    1066.425
  H     -271.250     -14.696    1065.892
  H     -270.086     -13.811    1066.848
  H     -269.808     -15.494    1066.471

 6  7  8  9  10  11  12  13  14  15  25  28  32  33  34  35 0
 6-311+G(2d,p)
 ****
 36  39  40 0
 6-311+G(2d,p)
 ****
 1  2  3  4  5  16  17  18  19  20  21  22  23  24 0
 3-21G
 ****
 26  27  29  30  31  37  38  41  42  43  44  45  46  47 0
 3-21G
 ****
 48 0
 3-21G
 ****


