%nproc=1
%NoSave
%Mem=1900MB
#P OB98/GEN NMR

erre ene a

0 1
  C       27.946    -238.479     -75.610
  O       27.359    -239.074     -74.468
  H       27.482    -238.901     -76.506
  H       29.018    -238.695     -75.633
  H       27.785    -237.398     -75.604
  P       27.736    -238.425     -73.053
  C       29.912    -239.872     -72.833
  O       29.327    -238.577     -72.865
  C       31.308    -239.801     -72.220
  O       31.929    -241.103     -72.208
  C       32.290    -238.943     -73.002
  O       32.029    -237.560     -72.871
  C       33.605    -239.373     -72.370
  O       33.877    -238.649     -71.164
  C       33.350    -240.869     -72.065
  N       34.142    -241.736     -72.920
  C       35.160    -242.449     -72.272
  O       35.318    -242.331     -71.056
  N       35.986    -243.242     -73.023
  C       35.834    -243.298     -74.311
  N       36.709    -244.078     -75.001
  C       34.777    -242.560     -75.033
  C       33.973    -241.804     -74.283
  O       27.142    -239.488     -72.017
  O       27.240    -237.033     -72.853
  H       34.585    -239.144     -70.698
  H       27.391    -240.405     -72.210
  H       34.682    -242.651     -76.104
  H       33.170    -241.231     -74.730
  H       33.601    -241.098     -71.019
  H       34.451    -239.199     -73.038
  H       32.303    -239.249     -74.057
  H       31.209    -239.451     -71.185
  H       37.454    -244.518     -74.472
  H       29.961    -240.297     -73.841
  H       36.736    -244.134     -76.008
  H       29.263    -240.515     -72.233
  P       32.478    -236.520     -74.000
  C       34.789    -236.499     -72.860
  O       34.082    -236.601     -74.093
  O       31.943    -235.137     -73.843
  O       32.032    -237.241     -75.359
  H       32.439    -238.113     -75.514
  H       35.841    -236.566     -73.045
  H       34.490    -237.295     -72.211
  H       34.567    -235.560     -72.398

 6  7  8  9  10  11  12  13  14  15  16  26  30  31  32  33  35 0
 6-311+G(2d,p)
 ****
 37  38 0
 6-311+G(2d,p)
 ****
 1  2  3  4  5  17  18  19  20  21  22  23  24  25 0
 3-21G
 ****
 27  28  29  34  36  39  40  41  42  43  44  45  46 0
 3-21G
 ****


