%nproc=1
%NoSave
%Mem=1900MB
#P OB98/GEN NMR

erre ene a

0 1
  C     -243.094     316.905     347.938
  O     -241.967     317.613     348.406
  H     -243.982     317.520     348.101
  H     -243.203     315.971     348.496
  H     -243.009     316.693     346.870
  P     -240.506     317.098     348.003
  C     -239.718     318.077     350.262
  O     -239.452     317.942     348.870
  C     -239.704     319.557     350.680
  O     -240.991     320.150     350.351
  C     -239.504     319.712     352.189
  O     -238.870     320.949     352.522
  C     -240.934     319.733     352.715
  O     -241.049     320.368     353.990
  C     -241.659     320.462     351.590
  N     -246.269     320.629     353.774
  C     -245.029     320.940     354.311
  N     -245.027     321.345     355.604
  N     -243.908     320.838     353.656
  C     -244.060     320.344     352.400
  C     -245.221     319.980     351.763
  C     -246.465     320.134     352.490
  O     -247.586     319.854     352.067
  N     -244.975     319.520     350.493
  C     -243.663     319.593     350.365
  N     -243.061     320.117     351.486
  O     -240.292     317.688     346.532
  O     -240.311     315.614     348.032
  H     -241.999     320.410     354.205
  H     -239.617     317.177     346.055
  H     -247.101     320.752     354.316
  H     -243.107     319.310     349.483
  H     -241.597     321.549     351.728
  H     -241.265     318.704     352.835
  H     -245.842     321.251     356.198
  H     -238.937     318.892     352.626
  H     -244.132     321.275     356.101
  H     -238.950     320.102     350.095
  H     -238.946     317.522     350.795
  H     -240.679     317.618     350.506
  P     -237.600     320.912     353.494
  C     -238.057     322.476     355.588
  O     -237.496     322.291     354.302
  O     -236.353     320.964     352.496
  O     -237.540     319.721     354.399
  H     -235.839     320.136     352.556
  H     -237.860     323.473     355.923
  H     -237.621     321.778     356.271
  H     -239.114     322.317     355.542

 6  7  8  9  10  11  12  13  14  15  26  29  33  34 0
 6-311+G(2d,p)
 ****
 36  38  39  40  41 0
 6-311+G(2d,p)
 ****
 1  2  3  4  5  16  17  18  19  20  21  22  23  24  25 0
 3-21G
 ****
 27  28  30  31  32  35  37  42  43  44  45  46  47 0
 3-21G
 ****
 48  49 0
 3-21G
 ****


