%nproc=1
%NoSave
%Mem=1900MB
#P OB98/GEN NMR

erre ene a

0 1
  C      214.165    -327.995     -45.355
  O      213.088    -327.477     -46.120
  P      212.230    -326.286     -45.461
  C      211.669    -325.515     -47.900
  O      211.196    -325.801     -46.588
  C      210.522    -325.654     -48.897
  O      210.133    -327.036     -49.028
  C      209.262    -324.889     -48.511
  O      209.378    -323.523     -48.876
  C      208.191    -325.645     -49.299
  O      208.167    -325.216     -50.672
  C      208.682    -327.099     -49.188
  N      204.415    -329.164     -47.429
  C      204.621    -328.327     -48.510
  N      203.527    -328.036     -49.259
  N      205.779    -327.823     -48.835
  C      206.777    -328.187     -47.989
  C      206.693    -328.996     -46.880
  C      205.411    -329.582     -46.559
  O      205.203    -330.410     -45.673
  N      207.916    -329.115     -46.256
  C      208.728    -328.413     -47.015
  N      208.094    -327.846     -48.088
  O      213.289    -325.090     -45.360
  O      211.602    -326.615     -44.143
  H      207.902    -324.275     -50.719
  H      213.661    -325.032     -44.456
  H      203.496    -329.531     -47.239
  H      209.796    -328.297     -46.841
  H      208.486    -327.671     -50.107
  H      207.190    -325.483     -48.897
  H      202.597    -328.371     -49.054
  H      209.068    -324.986     -47.437
  H      203.657    -327.423     -50.058
  H      210.891    -325.319     -49.883
  H      212.460    -326.226     -48.157
  H      212.084    -324.502     -47.916
  P      208.427    -322.474     -48.118
  C      209.334    -320.235     -49.095
  O      208.288    -321.194     -49.071
  O      209.347    -321.949     -46.908
  O      207.143    -323.047     -47.617
  H      208.794    -321.794     -46.121
  H      209.360    -319.767     -50.083
  H      210.305    -320.695     -48.881
  H      209.127    -319.471     -48.339
  H      214.649    -328.776     -45.904
  H      213.791    -328.387     -44.432
  H      214.867    -327.213     -45.152

 3  4  5  6  7  8  9  10  11  12  23  26  30  31 0
 6-311+G(2d,p)
 ****
 33  35  36  37  38 0
 6-311+G(2d,p)
 ****
 1  2  13  14  15  16  17  18  19  20  21  22  24  25 0
 3-21G
 ****
 27  28  29  32  34  39  40  41  42  43  44  45  46  47  48  49 0
 3-21G
 ****


