%nproc=1
%NoSave
%Mem=1900MB
#P OB98/GEN NMR

erre ene a

0 1
  C      477.858     553.847     170.397
  O      479.137     553.581     169.831
  P      479.995     554.639     168.992
  C      480.283     557.194     169.492
  O      480.374     555.858     169.954
  C      480.972     558.209     170.424
  O      480.414     558.099     171.762
  C      482.466     557.885     170.553
  O      483.377     558.348     169.574
  C      482.823     558.296     171.972
  O      483.348     559.622     172.048
  C      481.491     558.205     172.715
  N      482.232     556.582     177.517
  C      482.485     557.824     176.961
  N      483.051     558.744     177.776
  N      482.218     558.133     175.722
  C      481.734     557.099     174.996
  C      481.462     555.822     175.424
  C      481.706     555.509     176.817
  O      481.481     554.424     177.358
  N      480.997     555.039     174.400
  C      481.014     555.827     173.350
  N      481.448     557.097     173.661
  O      479.453     554.984     167.647
  O      481.403     553.882     168.763
  H      483.532     559.819     172.981
  H      481.744     554.177     167.900
  H      482.429     556.409     178.485
  H      480.720     555.549     172.344
  H      481.301     559.115     173.299
  H      483.603     557.631     172.377
  H      483.386     558.529     178.701
  H      482.559     556.795     170.531
  H      483.438     559.573     177.322
  H      480.780     559.229     170.101
  H      479.216     557.427     169.402
  H      480.705     557.273     168.494
  P      483.610     557.707     168.121
  C      482.615     557.980     165.780
  O      482.772     558.560     167.060
  O      482.804     556.323     168.181
  O      485.042     557.469     167.759
  H      483.085     555.733     167.455
  H      482.313     558.758     165.071
  H      481.844     557.207     165.809
  H      483.559     557.533     165.433
  H      477.504     552.974     170.905
  H      477.172     554.110     169.619
  H      477.937     554.657     171.092

 3  4  5  6  7  8  9  10  11  12  23  26  30  31 0
 6-311+G(2d,p)
 ****
 33  35  36  37  38 0
 6-311+G(2d,p)
 ****
 1  2  13  14  15  16  17  18  19  20  21  22  24  25 0
 3-21G
 ****
 27  28  29  32  34  39  40  41  42  43  44  45  46  47  48  49 0
 3-21G
 ****


