%nproc=1
%NoSave
%Mem=1900MB
#P OB98/GEN NMR

erre ene a

0 1
  C      -85.050    -423.615    -321.226
  O      -85.068    -423.223    -322.584
  H      -84.219    -423.110    -320.729
  H      -84.903    -424.695    -321.150
  H      -85.982    -423.328    -320.735
  P      -86.237    -423.832    -323.507
  C      -84.840    -425.941    -324.114
  O      -86.001    -425.424    -323.478
  C      -84.966    -427.456    -324.302
  O      -83.894    -427.920    -325.155
  C      -84.883    -428.239    -322.986
  O      -85.879    -429.265    -322.987
  C      -83.490    -428.836    -322.990
  O      -83.407    -430.025    -322.208
  C      -83.225    -429.010    -324.491
  N      -81.795    -429.017    -324.794
  C      -81.087    -430.184    -324.478
  O      -81.670    -431.142    -323.962
  N      -79.737    -430.225    -324.710
  C      -79.129    -429.170    -325.151
  N      -77.785    -429.265    -325.340
  C      -79.822    -427.900    -325.449
  C      -81.142    -427.900    -325.254
  O      -85.786    -423.408    -324.980
  O      -87.621    -423.403    -323.148
  H      -84.139    -430.621    -322.485
  H      -86.518    -423.532    -325.631
  H      -79.269    -427.044    -325.804
  H      -81.733    -427.011    -325.445
  H      -83.662    -429.952    -324.853
  H      -82.785    -428.111    -322.571
  H      -85.033    -427.609    -322.105
  H      -85.904    -427.666    -324.831
  H      -77.337    -430.146    -325.111
  H      -83.965    -425.718    -323.493
  H      -77.204    -428.497    -325.650
  H      -84.723    -425.463    -325.091
  P      -87.353    -428.824    -322.524
  C      -87.206    -429.620    -320.058
  O      -87.290    -428.513    -320.949
  O      -88.198    -430.180    -322.620
  O      -87.934    -427.728    -323.352
  H      -88.714    -430.202    -323.445
  H      -87.172    -429.264    -319.049
  H      -86.320    -430.181    -320.269
  H      -88.064    -430.247    -320.186

 6  7  8  9  10  11  12  13  14  15  16  26  30  31  32  33  35 0
 6-311+G(2d,p)
 ****
 37  38 0
 6-311+G(2d,p)
 ****
 1  2  3  4  5  17  18  19  20  21  22  23  24  25 0
 3-21G
 ****
 27  28  29  34  36  39  40  41  42  43  44  45  46 0
 3-21G
 ****


