%nproc=1
%NoSave
%Mem=1900MB
#P OB98/GEN NMR

erre ene a

0 1
  C      433.681    -324.938    -209.986
  O      434.802    -325.220    -209.151
  P      434.523    -325.870    -207.708
  C      435.842    -328.041    -208.275
  O      434.620    -327.460    -207.840
  C      435.694    -329.568    -208.400
  O      434.580    -329.929    -209.252
  C      436.919    -330.240    -208.999
  O      437.917    -330.486    -208.028
  C      436.313    -331.572    -209.467
  O      436.191    -332.466    -208.341
  C      434.926    -331.152    -209.954
  N      432.866    -332.655    -214.330
  C      432.667    -333.130    -213.046
  N      431.795    -334.156    -212.904
  N      433.276    -332.638    -211.992
  C      434.121    -331.617    -212.291
  C      434.408    -331.071    -213.517
  C      433.737    -331.623    -214.671
  O      433.862    -331.265    -215.829
  N      435.312    -330.046    -213.419
  C      435.584    -329.962    -212.117
  N      434.884    -330.900    -211.396
  O      432.956    -325.615    -207.501
  O      435.337    -325.268    -206.588
  H      437.105    -332.674    -208.063
  H      432.751    -325.546    -206.556
  H      432.378    -333.073    -215.105
  H      436.240    -329.241    -211.681
  H      434.146    -331.897    -209.725
  H      436.945    -332.079    -210.207
  H      431.266    -334.527    -213.662
  H      437.303    -329.693    -209.858
  H      431.607    -334.490    -211.955
  H      435.519    -329.973    -207.386
  H      436.634    -327.807    -207.552
  H      436.141    -327.584    -209.230
  P      439.280    -329.620    -208.115
  C      438.904    -328.466    -205.804
  O      439.030    -328.312    -207.219
  O      439.251    -329.069    -209.617
  O      440.523    -330.377    -207.832
  H      440.149    -328.969    -209.971
  H      438.913    -327.464    -205.351
  H      439.756    -329.032    -205.411
  H      437.972    -328.966    -205.567
  H      434.020    -324.511    -210.907
  H      433.032    -324.247    -209.490
  H      433.149    -325.844    -210.187

 3  4  5  6  7  8  9  10  11  12  23  26  30  31 0
 6-311+G(2d,p)
 ****
 33  35  36  37  38 0
 6-311+G(2d,p)
 ****
 1  2  13  14  15  16  17  18  19  20  21  22  24  25 0
 3-21G
 ****
 27  28  29  32  34  39  40  41  42  43  44  45  46  47  48  49 0
 3-21G
 ****


