%nproc=1
%NoSave
%Mem=1900MB
#P OB98/GEN NMR

erre ene a

0 1
  C     -118.586     197.800     341.612
  O     -118.586     197.099     342.834
  P     -117.461     197.260     343.952
  C     -115.709     195.684     342.821
  O     -116.541     195.942     343.940
  C     -114.371     195.063     343.259
  O     -113.629     194.683     342.074
  C     -113.507     196.076     344.027
  O     -112.841     195.532     345.158
  C     -112.640     196.682     342.932
  O     -111.459     197.304     343.417
  C     -112.425     195.485     342.007
  N     -109.077     197.361     338.678
  C     -108.874     196.968     339.987
  N     -107.675     197.278     340.524
  N     -109.783     196.352     340.706
  C     -110.970     196.209     340.071
  C     -111.286     196.559     338.782
  C     -110.266     197.209     337.986
  O     -110.439     197.679     336.861
  N     -112.607     196.324     338.497
  C     -113.099     195.864     339.632
  N     -112.149     195.805     340.623
  O     -117.898     197.797     345.274
  O     -116.485     198.356     343.277
  H     -111.727     197.971     344.069
  H     -116.122     198.903     344.002
  H     -108.368     197.908     338.202
  H     -114.136     195.586     339.792
  H     -111.593     194.861     342.345
  H     -113.228     197.456     342.432
  H     -107.018     197.879     340.046
  H     -114.134     196.869     344.458
  H     -107.593     197.227     341.534
  H     -114.570     194.156     343.838
  H     -115.536     196.649     342.332
  H     -116.221     195.032     342.099
  P     -113.357     195.419     346.663
  C     -112.712     197.842     347.200
  O     -112.563     196.481     347.559
  O     -112.796     194.017     347.196
  O     -114.846     195.469     346.820
  H     -113.466     193.582     347.750
  H     -111.925     198.421     347.692
  H     -113.685     198.206     347.540
  H     -112.624     197.969     346.117
  H     -119.444     197.517     341.039
  H     -117.697     197.563     341.065
  H     -118.617     198.852     341.804

 3  4  5  6  7  8  9  10  11  12  23  26  30  31 0
 6-311+G(2d,p)
 ****
 33  35  36  37  38 0
 6-311+G(2d,p)
 ****
 1  2  13  14  15  16  17  18  19  20  21  22  24  25 0
 3-21G
 ****
 27  28  29  32  34  39  40  41  42  43  44  45  46  47  48  49 0
 3-21G
 ****


