%nproc=1
%NoSave
%Mem=1900MB
#P OB98/GEN NMR

erre ene a

0 1
  C     -295.754    -712.688    -105.609
  O     -297.121    -712.958    -105.315
  P     -298.239    -711.849    -105.582
  C     -297.645    -710.031    -103.862
  O     -298.532    -711.090    -104.197
  C     -297.923    -709.526    -102.447
  O     -299.209    -708.881    -102.373
  C     -297.970    -710.622    -101.402
  O     -296.683    -711.137    -101.105
  C     -298.656    -709.902    -100.252
  O     -297.717    -709.096     -99.522
  C     -299.668    -709.012    -101.004
  N     -301.028    -709.525    -100.932
  C     -301.570    -709.656     -99.657
  O     -300.886    -709.427     -98.662
  N     -302.883    -710.058     -99.537
  C     -303.544    -710.410    -100.596
  N     -304.851    -710.745    -100.433
  C     -302.944    -710.437    -101.950
  C     -301.704    -709.958    -102.045
  O     -299.450    -712.327    -106.300
  O     -297.476    -710.723    -106.440
  H     -298.013    -710.517    -107.233
  H     -297.191    -709.711     -98.970
  H     -303.515    -710.814    -102.786
  H     -301.193    -709.928    -103.003
  H     -299.655    -707.992    -100.591
  H     -299.114    -710.596     -99.537
  H     -298.617    -711.438    -101.756
  H     -297.153    -708.783    -102.195
  H     -305.225    -710.689     -99.496
  H     -297.795    -709.212    -104.577
  H     -305.515    -710.714    -101.198
  H     -296.615    -710.380    -103.951
  P     -296.165    -712.368    -101.994
  C     -297.763    -714.174    -101.045
  O     -296.437    -713.715    -101.165
  O     -294.576    -712.209    -101.972
  O     -296.688    -712.384    -103.401
  H     -294.207    -712.464    -102.838
  H     -297.733    -715.231    -100.772
  H     -298.310    -714.069    -101.984
  H     -298.270    -713.613    -100.247
  H     -295.161    -713.544    -105.365
  H     -295.424    -711.849    -105.032
  H     -295.650    -712.467    -106.651

 3  4  5  6  7  8  9  10  11  12  13  24  27  28  29  30  32 0
 6-311+G(2d,p)
 ****
 34  35 0
 6-311+G(2d,p)
 ****
 1  2  14  15  16  17  18  19  20  21  22  23  25  26 0
 3-21G
 ****
 31  33  36  37  38  39  40  41  42  43  44  45  46 0
 3-21G
 ****


