%nproc=1
%NoSave
%Mem=1900MB
#P OB98/GEN NMR

erre ene a

0 1
  C     -223.287    -826.272    -421.794
  O     -223.067    -827.666    -421.876
  P     -221.785    -828.345    -421.194
  C     -222.844    -830.174    -419.735
  O     -222.228    -828.894    -419.753
  C     -222.619    -830.877    -418.404
  O     -221.216    -831.219    -418.261
  C     -223.025    -830.044    -417.179
  O     -223.617    -830.953    -416.226
  C     -221.701    -829.517    -416.658
  O     -221.762    -829.153    -415.298
  C     -220.784    -830.702    -416.987
  N     -219.381    -830.323    -417.022
  C     -218.872    -829.670    -415.905
  O     -219.629    -829.327    -414.983
  N     -217.529    -829.411    -415.841
  C     -216.785    -829.606    -416.900
  N     -215.456    -829.400    -416.779
  C     -217.345    -830.064    -418.190
  C     -218.626    -830.433    -418.170
  O     -220.555    -827.507    -421.188
  O     -221.565    -829.689    -422.033
  H     -220.635    -829.717    -422.352
  H     -221.737    -829.971    -414.749
  H     -216.723    -830.087    -419.070
  H     -219.114    -830.801    -419.071
  H     -220.911    -831.501    -416.246
  H     -221.414    -828.635    -417.237
  H     -223.747    -829.266    -417.420
  H     -223.177    -831.824    -418.420
  H     -215.102    -829.130    -415.869
  H     -222.391    -830.775    -420.538
  H     -214.783    -829.822    -417.418
  H     -223.917    -830.081    -419.948
  P     -225.044    -830.564    -415.602
  C     -226.697    -831.750    -417.207
  O     -226.117    -830.535    -416.787
  O     -224.846    -829.004    -415.279
  O     -225.433    -831.284    -414.354
  H     -225.449    -828.745    -414.553
  H     -227.341    -831.544    -418.062
  H     -227.300    -832.182    -416.407
  H     -225.925    -832.455    -417.524
  H     -224.190    -826.023    -422.310
  H     -222.465    -825.754    -422.243
  H     -223.372    -825.984    -420.767

 3  4  5  6  7  8  9  10  11  12  13  24  27  28  29  30  32 0
 6-311+G(2d,p)
 ****
 34  35 0
 6-311+G(2d,p)
 ****
 1  2  14  15  16  17  18  19  20  21  22  23  25  26 0
 3-21G
 ****
 31  33  36  37  38  39  40  41  42  43  44  45  46 0
 3-21G
 ****


