%nproc=1
%NoSave
%Mem=1900MB
#P OB98/GEN NMR

erre ene a

0 1
  C       -7.756    -145.266     103.845
  O       -8.455    -144.206     103.221
  H       -8.379    -145.672     104.646
  H       -6.823    -144.894     104.277
  H       -7.543    -146.059     103.123
  P       -7.794    -143.578     101.906
  C       -5.600    -142.656     103.016
  O       -6.840    -142.374     102.380
  C       -4.715    -141.412     103.006
  O       -4.362    -141.035     101.659
  C       -5.389    -140.171     103.565
  O       -5.560    -140.224     104.963
  C       -4.417    -139.097     103.100
  O       -3.261    -139.043     103.949
  C       -4.037    -139.618     101.692
  N       -4.707    -138.886     100.627
  C       -4.295    -137.559     100.446
  O       -3.410    -137.083     101.157
  N       -4.918    -136.803      99.485
  C       -5.848    -137.327      98.753
  N       -6.431    -136.522      97.825
  C       -6.295    -138.727      98.891
  C       -5.691    -139.439      99.842
  O       -9.022    -142.810     101.229
  O       -7.106    -144.554     101.009
  H       -3.013    -139.969     104.134
  H       -9.471    -142.189     101.827
  H       -7.068    -139.125      98.251
  H       -5.959    -140.474     100.011
  H       -2.955    -139.538     101.531
  H       -4.867    -138.102     103.113
  H       -6.347    -139.999     103.057
  H       -3.792    -141.648     103.550
  H       -6.114    -135.561      97.772
  H       -5.094    -143.495     102.530
  H       -7.188    -136.810      97.222
  H       -5.819    -142.954     104.047
  P       -6.915    -139.697     105.640
  C       -6.022    -137.298     105.923
  O       -6.494    -138.468     106.585
  O       -7.738    -140.742     106.311
  O       -7.663    -138.954     104.433
  H       -7.168    -138.213     104.042
  H       -5.774    -136.553     106.650
  H       -6.785    -136.923     105.274
  H       -5.152    -137.540     105.348

 6  7  8  9  10  11  12  13  14  15  16  26  30  31  32  33  35 0
 6-311+G(2d,p)
 ****
 37  38 0
 6-311+G(2d,p)
 ****
 1  2  3  4  5  17  18  19  20  21  22  23  24  25 0
 3-21G
 ****
 27  28  29  34  36  39  40  41  42  43  44  45  46 0
 3-21G
 ****


