%nproc=1
%NoSave
%Mem=1900MB
#P OB98/GEN NMR

erre ene a

0 1
  C       44.728     238.621    -163.839
  O       44.659     237.275    -164.294
  P       43.579     236.911    -165.423
  C       41.121     236.091    -165.307
  O       42.145     236.864    -164.698
  C       39.755     236.401    -164.697
  O       39.357     237.744    -165.087
  C       38.632     235.449    -165.129
  O       37.730     235.328    -164.022
  C       37.946     236.216    -166.246
  O       36.614     235.759    -166.472
  C       38.054     237.641    -165.705
  N       35.229     241.539    -167.439
  C       35.112     240.765    -166.339
  N       35.905     239.745    -165.944
  C       36.905     239.553    -166.822
  C       37.131     240.240    -168.004
  C       36.238     241.283    -168.306
  N       36.362     242.080    -169.421
  N       38.240     239.737    -168.654
  C       38.677     238.765    -167.876
  N       37.916     238.635    -166.749
  O       43.896     235.371    -165.725
  O       43.649     237.734    -166.662
  H       36.661     234.860    -166.846
  H       44.269     235.279    -166.624
  H       34.278     240.997    -165.686
  H       39.527     238.132    -168.088
  H       37.298     237.851    -164.936
  H       38.508     236.100    -167.176
  H       38.980     234.463    -165.447
  H       39.857     236.402    -163.605
  H       41.340     235.031    -165.150
  H       35.767     242.890    -169.499
  H       37.213     242.023    -169.972
  H       41.107     236.285    -166.386
  P       37.326     233.840    -163.578
  C       35.947     231.933    -164.669
  O       36.658     233.142    -164.854
  O       36.091     234.076    -162.584
  O       38.427     233.079    -162.916
  H       36.043     233.346    -161.935
  H       35.122     231.895    -165.385
  H       35.543     231.847    -163.654
  H       36.620     231.088    -164.858
  H       45.490     238.706    -163.092
  H       43.785     238.905    -163.421
  H       44.961     239.264    -164.662

 3  4  5  6  7  8  9  10  11  12  22  25  29  30  31  32 0
 6-311+G(2d,p)
 ****
 33  36  37 0
 6-311+G(2d,p)
 ****
 1  2  13  14  15  16  17  18  19  20  21  23  24  26 0
 3-21G
 ****
 27  28  34  35  38  39  40  41  42  43  44  45  46  47  48 0
 3-21G
 ****


