%nproc=1
%NoSave
%Mem=1900MB
#P OB98/GEN NMR

erre ene a

0 1
  C      -66.917    -225.668     277.839
  O      -67.588    -226.180     276.705
  H      -67.292    -226.177     278.728
  H      -67.124    -224.597     277.932
  H      -65.839    -225.835     277.762
  P      -66.985    -225.804     275.267
  C      -68.510    -223.912     274.361
  O      -67.296    -224.247     275.019
  C      -68.279    -222.767     273.373
  O      -67.442    -223.246     272.287
  C      -69.569    -222.217     272.753
  O      -69.453    -220.795     272.626
  C      -69.604    -222.853     271.374
  O      -70.358    -222.087     270.433
  C      -68.119    -222.948     271.051
  N      -66.632    -223.726     266.298
  C      -66.703    -222.554     267.033
  N      -66.322    -221.419     266.403
  N      -67.105    -222.507     268.275
  C      -67.415    -223.721     268.783
  C      -67.395    -224.945     268.165
  C      -66.973    -224.985     266.778
  O      -66.913    -225.983     266.069
  N      -67.814    -225.941     269.011
  C      -68.091    -225.318     270.140
  N      -67.853    -223.970     270.057
  O      -67.977    -226.550     274.254
  O      -65.568    -226.210     275.041
  H      -69.871    -221.251     270.277
  H      -67.486    -227.239     273.765
  H      -66.324    -223.704     265.339
  H      -68.463    -225.788     271.038
  H      -67.716    -222.003     270.661
  H      -70.053    -223.850     271.440
  H      -65.957    -221.389     265.469
  H      -70.464    -222.454     273.337
  H      -66.328    -220.559     266.933
  H      -67.723    -221.975     273.880
  H      -69.249    -223.608     275.108
  H      -68.887    -224.792     273.828
  P      -69.968    -219.907     273.861
  C      -72.240    -218.896     273.127
  O      -71.577    -219.922     273.857
  O      -69.604    -218.413     273.412
  O      -69.333    -220.258     275.165
  H      -68.852    -218.082     273.939
  H      -73.299    -219.027     273.210
  H      -71.953    -218.949     272.097
  H      -71.966    -217.941     273.525

 6  7  8  9  10  11  12  13  14  15  26  29  33  34 0
 6-311+G(2d,p)
 ****
 36  38  39  40  41 0
 6-311+G(2d,p)
 ****
 1  2  3  4  5  16  17  18  19  20  21  22  23  24  25 0
 3-21G
 ****
 27  28  30  31  32  35  37  42  43  44  45  46  47 0
 3-21G
 ****
 48  49 0
 3-21G
 ****


