%nproc=1
%NoSave
%Mem=1900MB
#P OB98/GEN NMR

erre ene a

0 1
  C      -12.787      17.767     -63.823
  O      -13.698      18.488     -64.658
  P      -13.588      18.265     -66.242
  C      -12.846      20.538     -67.251
  O      -13.920      19.650     -66.982
  C      -13.354      21.951     -67.572
  O      -13.956      21.995     -68.896
  C      -14.413      22.459     -66.589
  O      -14.301      23.884     -66.504
  C      -15.711      22.115     -67.294
  O      -16.808      22.866     -66.777
  C      -15.326      22.419     -68.740
  N      -17.766      22.923     -73.124
  C      -17.010      23.836     -72.416
  N      -16.853      25.053     -72.978
  N      -16.455      23.578     -71.260
  C      -16.670      22.307     -70.840
  C      -17.404      21.315     -71.446
  C      -18.032      21.623     -72.711
  O      -18.725      20.858     -73.376
  N      -17.407      20.166     -70.696
  C      -16.681      20.468     -69.637
  N      -16.182      21.742     -69.695
  O      -14.867      17.356     -66.565
  O      -12.326      17.594     -66.672
  H      -16.873      22.668     -65.818
  H      -14.581      16.448     -66.772
  H      -18.179      23.178     -74.005
  H      -16.488      19.808     -68.804
  H      -15.380      23.491     -68.969
  H      -15.934      21.048     -67.163
  H      -17.210      25.300     -73.888
  H      -14.350      22.031     -65.585
  H      -16.269      25.728     -72.500
  H      -12.499      22.636     -67.580
  H      -12.252      20.167     -68.091
  H      -12.168      20.545     -66.391
  P      -13.294      24.470     -65.405
  C      -15.211      25.446     -63.953
  O      -14.050      25.702     -64.718
  O      -12.150      25.171     -66.278
  O      -12.737      23.452     -64.465
  H      -11.318      25.212     -65.775
  H      -14.959      25.506     -62.891
  H      -15.637      24.462     -64.169
  H      -15.959      26.209     -64.184
  H      -12.973      18.011     -62.798
  H      -11.783      18.035     -64.076
  H      -12.924      16.716     -63.970

 3  4  5  6  7  8  9  10  11  12  23  26  30  31 0
 6-311+G(2d,p)
 ****
 33  35  36  37  38 0
 6-311+G(2d,p)
 ****
 1  2  13  14  15  16  17  18  19  20  21  22  24  25 0
 3-21G
 ****
 27  28  29  32  34  39  40  41  42  43  44  45  46  47  48  49 0
 3-21G
 ****


