%nproc=1
%NoSave
%Mem=1900MB
#P OB98/GEN NMR

erre ene a

0 1
  C     -264.366     149.977    -246.247
  O     -263.172     150.705    -246.559
  P     -262.836     151.995    -245.670
  C     -260.379     151.377    -245.102
  O     -261.256     152.282    -245.753
  C     -258.935     151.540    -245.601
  O     -258.745     150.845    -246.864
  C     -258.525     152.997    -245.831
  O     -257.122     153.115    -245.589
  C     -258.783     153.183    -247.312
  O     -258.082     154.313    -247.834
  C     -258.329     151.823    -247.841
  N     -257.215     150.952    -252.683
  C     -256.391     151.270    -251.622
  N     -255.067     151.329    -251.886
  N     -256.822     151.505    -250.410
  C     -258.166     151.373    -250.292
  C     -259.090     151.071    -251.265
  C     -258.597     150.836    -252.606
  O     -259.285     150.567    -253.587
  N     -260.366     151.054    -250.758
  C     -260.210     151.352    -249.482
  N     -258.893     151.519    -249.143
  O     -263.039     151.463    -244.174
  O     -263.715     153.169    -245.951
  H     -257.183     154.009    -248.081
  H     -263.846     151.849    -243.795
  H     -256.829     150.790    -253.597
  H     -261.010     151.462    -248.764
  H     -257.239     151.761    -247.944
  H     -259.856     153.334    -247.491
  H     -254.663     151.107    -252.783
  H     -259.061     153.727    -245.214
  H     -254.434     151.518    -251.116
  H     -258.261     151.077    -244.871
  H     -260.705     150.348    -245.270
  H     -260.446     151.535    -244.020
  P     -256.668     153.514    -244.105
  C     -254.446     152.176    -244.233
  O     -255.067     153.438    -244.089
  O     -257.110     152.250    -243.224
  O     -257.258     154.786    -243.593
  H     -257.251     152.516    -242.297
  H     -254.056     152.087    -245.249
  H     -255.138     151.353    -244.032
  H     -253.610     152.114    -243.530
  H     -264.463     149.147    -246.916
  H     -265.214     150.621    -246.352
  H     -264.313     149.619    -245.240

 3  4  5  6  7  8  9  10  11  12  23  26  30  31 0
 6-311+G(2d,p)
 ****
 33  35  36  37  38 0
 6-311+G(2d,p)
 ****
 1  2  13  14  15  16  17  18  19  20  21  22  24  25 0
 3-21G
 ****
 27  28  29  32  34  39  40  41  42  43  44  45  46  47  48  49 0
 3-21G
 ****


