%nproc=1
%NoSave
%Mem=1900MB
#P OB98/GEN NMR

erre ene a

0 1
  C      145.049    -225.173    -412.663
  O      144.837    -225.866    -413.874
  H      144.422    -225.622    -411.883
  H      144.764    -224.122    -412.779
  H      146.097    -225.246    -412.360
  P      145.663    -225.358    -415.155
  C      143.456    -224.327    -416.045
  O      144.833    -224.121    -415.759
  C      143.113    -223.780    -417.436
  O      143.293    -222.335    -417.436
  C      143.987    -224.360    -418.563
  O      143.172    -224.544    -419.730
  C      144.988    -223.247    -418.829
  O      145.544    -223.324    -420.139
  C      144.111    -222.019    -418.583
  N      145.362    -217.544    -420.539
  C      144.483    -218.516    -420.999
  N      143.850    -218.256    -422.164
  N      144.268    -219.641    -420.373
  C      144.947    -219.753    -419.208
  C      145.854    -218.878    -418.652
  C      146.107    -217.641    -419.367
  O      146.892    -216.756    -419.023
  N      146.364    -219.376    -417.476
  C      145.774    -220.548    -417.326
  N      144.904    -220.822    -418.352
  O      145.429    -226.519    -416.237
  O      147.110    -225.088    -414.923
  H      146.223    -222.620    -420.212
  H      146.195    -226.593    -416.837
  H      145.507    -216.694    -421.066
  H      145.942    -221.236    -416.508
  H      143.447    -221.801    -419.429
  H      145.808    -223.296    -418.101
  H      143.952    -217.395    -422.687
  H      144.474    -225.304    -418.297
  H      143.196    -218.953    -422.511
  H      142.046    -223.963    -417.634
  H      142.851    -223.802    -415.290
  H      143.233    -225.396    -416.003
  P      142.830    -226.049    -420.164
  C      144.749    -226.745    -421.763
  O      144.201    -226.833    -420.460
  O      142.185    -225.860    -421.623
  O      141.880    -226.743    -419.241
  H      141.223    -226.024    -421.583
  H      145.654    -227.314    -421.808
  H      144.959    -225.721    -421.993
  H      144.048    -227.134    -422.472

 6  7  8  9  10  11  12  13  14  15  26  29  33  34 0
 6-311+G(2d,p)
 ****
 36  38  39  40  41 0
 6-311+G(2d,p)
 ****
 1  2  3  4  5  16  17  18  19  20  21  22  23  24  25 0
 3-21G
 ****
 27  28  30  31  32  35  37  42  43  44  45  46  47 0
 3-21G
 ****
 48  49 0
 3-21G
 ****


