%nproc=1
%NoSave
%Mem=1900MB
#P OB98/GEN NMR

erre ene a

0 1
  C     -400.554      30.112     -21.274
  O     -401.854      29.684     -21.624
  H     -399.929      30.107     -22.170
  H     -400.119      29.430     -20.537
  H     -400.585      31.127     -20.869
  P     -402.924      29.597     -20.431
  C     -404.663      30.693     -22.013
  O     -404.371      29.622     -21.127
  C     -405.734      30.276     -23.016
  O     -406.766      29.498     -22.368
  C     -406.435      31.438     -23.708
  O     -405.673      31.916     -24.804
  C     -407.740      30.784     -24.141
  O     -407.572      30.022     -25.352
  C     -408.045      29.861     -22.953
  N     -412.807      31.094     -21.818
  C     -412.295      30.434     -22.915
  N     -413.180      30.099     -23.878
  N     -411.032      30.136     -23.062
  C     -410.262      30.565     -22.033
  C     -410.651      31.213     -20.885
  C     -412.059      31.507     -20.723
  O     -412.583      32.032     -19.745
  N     -409.579      31.465     -20.069
  C     -408.540      31.004     -20.737
  N     -408.901      30.463     -21.945
  O     -402.828      31.038     -19.736
  O     -402.700      28.498     -19.449
  H     -407.127      30.574     -26.019
  H     -403.030      30.947     -18.786
  H     -413.791      31.279     -21.754
  H     -407.517      31.038     -20.394
  H     -408.533      28.932     -23.268
  H     -408.514      31.525     -24.343
  H     -414.064      30.579     -23.976
  H     -406.651      32.242     -22.993
  H     -412.810      29.633     -24.698
  H     -405.254      29.622     -23.756
  H     -403.750      30.964     -22.555
  H     -405.005      31.556     -21.434
  P     -405.422      33.500     -24.903
  C     -403.867      32.889     -26.896
  O     -404.847      33.776     -26.375
  O     -404.150      33.732     -23.963
  O     -406.585      34.340     -24.495
  H     -404.074      34.678     -23.730
  H     -403.587      33.205     -27.879
  H     -404.270      31.899     -26.941
  H     -403.006      32.895     -26.260

 6  7  8  9  10  11  12  13  14  15  26  29  33  34 0
 6-311+G(2d,p)
 ****
 36  38  39  40  41 0
 6-311+G(2d,p)
 ****
 1  2  3  4  5  16  17  18  19  20  21  22  23  24  25 0
 3-21G
 ****
 27  28  30  31  32  35  37  42  43  44  45  46  47 0
 3-21G
 ****
 48  49 0
 3-21G
 ****


