%nproc=1
%NoSave
%Mem=1900MB
#P OB98/GEN NMR

erre ene a

0 1
  C      697.727    -237.522     440.681
  O      698.096    -238.387     441.741
  H      697.105    -236.712     441.083
  H      697.149    -238.076     439.938
  H      698.613    -237.085     440.216
  P      699.180    -239.522     441.400
  C      700.286    -239.230     443.732
  O      700.461    -239.219     442.315
  C      700.862    -240.524     444.326
  O      702.232    -240.707     443.880
  C      700.906    -240.546     445.848
  O      699.649    -240.930     446.402
  C      701.961    -241.621     446.078
  O      701.376    -242.926     445.864
  C      702.976    -241.301     444.975
  N      707.098    -240.761     447.875
  C      706.258    -241.847     447.726
  N      706.549    -242.948     448.465
  N      705.221    -241.862     446.932
  C      705.044    -240.693     446.268
  C      705.808    -239.552     446.325
  C      706.963    -239.555     447.204
  O      707.756    -238.628     447.354
  N      705.318    -238.571     445.498
  C      704.251    -239.115     444.954
  N      704.034    -240.394     445.393
  O      699.687    -239.125     439.929
  O      698.676    -240.924     441.439
  H      700.678    -243.046     446.533
  H      699.862    -239.944     439.423
  H      707.888    -240.803     448.511
  H      703.609    -238.622     444.239
  H      703.465    -242.208     444.591
  H      702.349    -241.610     447.096
  H      707.309    -242.981     449.124
  H      701.260    -239.593     446.262
  H      705.962    -243.761     448.353
  H      700.279    -241.362     443.931
  H      699.221    -239.181     443.965
  H      700.794    -238.358     444.164
  P      699.050    -240.018     447.585
  C      696.964    -239.263     446.235
  O      698.189    -238.880     446.859
  O      700.345    -239.224     448.111
  O      698.367    -240.774     448.674
  H      700.197    -238.929     449.032
  H      696.504    -238.403     445.795
  H      696.307    -239.684     446.967
  H      697.163    -239.989     445.475

 6  7  8  9  10  11  12  13  14  15  26  29  33  34 0
 6-311+G(2d,p)
 ****
 36  38  39  40  41 0
 6-311+G(2d,p)
 ****
 1  2  3  4  5  16  17  18  19  20  21  22  23  24  25 0
 3-21G
 ****
 27  28  30  31  32  35  37  42  43  44  45  46  47 0
 3-21G
 ****
 48  49 0
 3-21G
 ****


