%nproc=1
%NoSave
%Mem=1900MB
#P OB98/GEN NMR

erre ene a

0 1
  C     -433.922     -71.446     579.110
  O     -432.544     -71.250     579.357
  H     -434.419     -70.471     579.104
  H     -434.371     -72.060     579.899
  H     -434.074     -71.921     578.136
  P     -431.594     -72.541     579.419
  C     -431.409     -72.083     581.955
  O     -431.647     -73.049     580.940
  C     -432.331     -72.335     583.145
  O     -433.653     -72.690     582.693
  C     -431.870     -73.476     584.059
  O     -430.859     -73.022     584.944
  C     -433.178     -73.811     584.759
  O     -433.451     -72.828     585.772
  C     -434.185     -73.687     583.603
  N     -436.290     -78.301     583.687
  C     -436.215     -77.343     584.675
  N     -436.743     -77.682     585.875
  N     -435.657     -76.169     584.514
  C     -435.117     -76.003     583.285
  C     -435.109     -76.888     582.228
  C     -435.774     -78.156     582.396
  O     -435.878     -79.031     581.539
  N     -434.398     -76.390     581.163
  C     -434.013     -75.194     581.563
  N     -434.408     -74.914     582.853
  O     -430.203     -72.365     578.887
  O     -432.407     -73.663     578.622
  H     -432.762     -72.933     586.458
  H     -432.155     -73.680     577.680
  H     -436.714     -79.198     583.876
  H     -433.444     -74.490     580.965
  H     -435.164     -73.338     583.944
  H     -433.160     -74.791     585.242
  H     -436.914     -78.643     586.129
  H     -431.544     -74.347     583.482
  H     -436.655     -77.005     586.629
  H     -432.419     -71.398     583.710
  H     -431.600     -71.096     581.523
  H     -430.361     -72.126     582.286
  P     -429.435     -73.763     585.030
  C     -430.305     -74.771     587.242
  O     -429.676     -75.019     585.996
  O     -428.293     -72.884     585.419
  O     -429.255     -74.450     583.596
  H     -428.824     -73.869     582.923
  H     -430.403     -75.690     587.781
  H     -431.275     -74.351     587.075
  H     -429.712     -74.085     587.810

 6  7  8  9  10  11  12  13  14  15  26  29  33  34 0
 6-311+G(2d,p)
 ****
 36  38  39  40  41 0
 6-311+G(2d,p)
 ****
 1  2  3  4  5  16  17  18  19  20  21  22  23  24  25 0
 3-21G
 ****
 27  28  30  31  32  35  37  42  43  44  45  46  47 0
 3-21G
 ****
 48  49 0
 3-21G
 ****


