%nproc=1
%NoSave
%Mem=1900MB
#P OB98/GEN NMR

erre ene a

0 1
  C      468.132     450.976      58.492
  O      468.997     450.951      59.606
  H      468.693     451.294      57.615
  H      467.326     451.698      58.675
  H      467.706     449.983      58.307
  P      468.509     450.149      60.907
  C      467.894     452.085      62.519
  O      467.418     451.077      61.642
  C      466.936     452.250      63.710
  O      465.745     452.944      63.247
  C      466.490     450.918      64.338
  O      466.362     451.088      65.755
  C      465.083     450.733      63.763
  O      464.275     449.884      64.571
  C      464.605     452.183      63.705
  N      459.710     453.290      63.660
  C      460.651     453.401      64.667
  N      460.204     453.839      65.874
  N      461.922     453.134      64.508
  C      462.228     452.729      63.247
  C      461.396     452.557      62.172
  C      459.990     452.856      62.370
  O      459.102     452.736      61.514
  N      462.085     452.077      61.089
  C      463.318     451.934      61.513
  N      463.461     452.322      62.828
  O      469.781     450.229      61.870
  O      468.082     448.735      60.665
  H      464.158     450.308      65.447
  H      470.332     449.428      61.764
  H      458.740     453.501      63.845
  H      464.147     451.537      60.934
  H      464.309     452.567      64.693
  H      465.149     450.288      62.753
  H      459.259     454.107      66.070
  H      467.147     450.075      64.129
  H      460.890     453.978      66.597
  H      467.417     452.887      64.458
  H      467.959     453.036      61.985
  H      468.893     451.819      62.877
  P      467.630     450.750      66.671
  C      466.720     448.374      67.227
  O      467.800     449.157      66.728
  O      467.137     451.122      68.149
  O      468.867     451.510      66.303
  H      467.882     451.477      68.670
  H      466.988     447.338      67.200
  H      465.853     448.534      66.620
  H      466.507     448.661      68.235

 6  7  8  9  10  11  12  13  14  15  26  29  33  34 0
 6-311+G(2d,p)
 ****
 36  38  39  40  41 0
 6-311+G(2d,p)
 ****
 1  2  3  4  5  16  17  18  19  20  21  22  23  24  25 0
 3-21G
 ****
 27  28  30  31  32  35  37  42  43  44  45  46  47 0
 3-21G
 ****
 48  49 0
 3-21G
 ****


