%nproc=1
%NoSave
%Mem=1900MB
#P OB98/GEN NMR

erre ene a

0 1
  C     -310.934      15.514    -534.542
  O     -310.910      14.081    -534.557
  P     -309.606      13.372    -535.168
  C     -308.866      12.410    -532.848
  O     -308.568      13.255    -533.949
  C     -307.741      12.487    -531.810
  O     -307.762      13.771    -531.136
  C     -307.832      11.442    -530.711
  O     -307.453      10.162    -531.176
  C     -306.904      12.048    -529.663
  O     -305.534      11.764    -529.986
  C     -307.183      13.557    -529.822
  N     -308.035      14.097    -528.769
  C     -307.465      14.168    -527.502
  O     -306.323      13.781    -527.259
  N     -308.262      14.683    -526.518
  C     -309.552      15.097    -526.666
  O     -310.217      15.559    -525.747
  C     -310.119      14.953    -528.018
  C     -309.344      14.468    -528.992
  O     -309.017      14.545    -536.082
  O     -309.916      12.101    -535.888
  H     -309.153      15.427    -535.701
  H     -304.993      12.266    -529.339
  H     -307.862      14.754    -525.593
  H     -311.150      15.244    -528.170
  H     -309.746      14.348    -529.994
  H     -306.239      14.117    -529.812
  H     -307.093      11.654    -528.660
  H     -308.860      11.405    -530.320
  H     -306.781      12.396    -532.345
  H     -308.967      11.378    -533.186
  H     -309.822      12.714    -532.413
  P     -308.607       9.045    -531.258
  C     -308.898       9.271    -533.846
  O     -309.471       9.374    -532.559
  O     -309.551       9.490    -530.044
  O     -308.092       7.641    -531.159
  H     -309.706      10.445    -530.007
  H     -309.698       9.188    -534.586
  H     -308.256       8.390    -533.921
  H     -308.310      10.173    -534.057
  H     -311.854      15.851    -534.111
  H     -310.853      15.883    -535.543
  H     -310.113      15.878    -533.960

 3  4  5  6  7  8  9  10  11  12  13  24  28  29  30  31  32 0
 6-311+G(2d,p)
 ****
 33  34 0
 6-311+G(2d,p)
 ****
 1  2  14  15  16  17  18  19  20  21  22  23  25  26  27 0
 3-21G
 ****
 35  36  37  38  39  40  41  42  43  44  45 0
 3-21G
 ****


