%nproc=1
%NoSave
%Mem=1900MB
#P OB98/GEN NMR

erre ene a

0 1
  C     -120.742     694.855     742.016
  O     -121.356     695.923     742.706
  H     -119.738     694.704     742.425
  H     -120.658     695.089     740.950
  H     -121.315     693.932     742.150
  P     -122.860     696.289     742.265
  C     -123.992     697.116     740.076
  O     -122.779     696.769     740.739
  C     -123.677     697.898     738.803
  O     -122.775     697.134     737.971
  C     -124.892     698.175     737.935
  O     -125.665     699.256     738.425
  C     -124.233     698.466     736.587
  O     -123.793     699.821     736.499
  C     -123.034     697.503     736.595
  N     -123.497     695.720     731.833
  C     -123.162     696.948     732.304
  N     -123.051     697.329     733.596
  C     -123.295     696.303     734.431
  C     -123.656     695.006     734.084
  C     -123.744     694.728     732.708
  N     -124.109     693.492     732.217
  N     -123.861     694.244     735.206
  C     -123.638     695.062     736.227
  N     -123.284     696.311     735.798
  O     -123.150     697.641     743.076
  O     -123.875     695.239     742.559
  H     -123.228     699.874     735.697
  H     -123.681     697.432     743.873
  H     -122.961     697.707     731.561
  H     -123.725     694.799     737.277
  H     -122.122     697.975     736.207
  H     -124.937     698.290     735.772
  H     -125.504     697.271     737.839
  H     -123.167     698.834     739.073
  H     -124.600     697.743     740.741
  H     -124.541     696.206     739.842
  H     -124.229     693.383     731.230
  H     -124.404     692.781     732.870
  P     -127.147     699.449     737.838
  C     -128.246     699.417     735.472
  O     -127.069     699.258     736.255
  O     -127.444     700.992     738.024
  O     -128.182     698.589     738.493
  H     -128.391     701.141     738.251
  H     -128.013     699.255     734.440
  H     -128.628     700.408     735.599
  H     -128.983     698.708     735.787

 6  7  8  9  10  11  12  13  14  15  25  28  32  33  34  35 0
 6-311+G(2d,p)
 ****
 36  37  40 0
 6-311+G(2d,p)
 ****
 1  2  3  4  5  16  17  18  19  20  21  22  23  24 0
 3-21G
 ****
 26  27  29  30  31  38  39 41  42  43  44  45  46  47  48 0
 3-21G
 ****


