%nproc=1
%NoSave
%Mem=1900MB
#P OB98/GEN NMR

erre ene a

0 1
  C      305.923     337.919    -655.738
  O      306.975     337.166    -655.134
  P      308.468     337.575    -655.568
  C      308.899     338.942    -653.409
  O      308.827     338.954    -654.826
  C      309.590     340.205    -652.881
  O      311.019     340.164    -653.171
  C      309.044     341.505    -653.490
  O      309.106     342.500    -652.456
  C      310.056     341.796    -654.582
  O      310.002     343.131    -655.060
  C      311.338     341.392    -653.859
  N      316.000     343.098    -655.041
  C      315.104     343.488    -654.108
  N      313.874     342.984    -653.858
  C      313.609     341.961    -654.689
  C      314.423     341.452    -655.691
  C      315.675     342.064    -655.856
  N      316.584     341.689    -656.816
  N      313.783     340.413    -656.354
  C      312.584     340.357    -655.800
  N      312.466     341.215    -654.742
  O      308.307     337.995    -657.102
  O      309.465     336.481    -655.378
  H      310.380     343.738    -654.394
  H      308.583     337.264    -657.688
  H      315.413     344.322    -653.482
  H      311.777     339.721    -656.125
  H      311.635     342.130    -653.102
  H      309.873     341.135    -655.436
  H      308.015     341.425    -653.847
  H      309.479     340.226    -651.789
  H      309.452     338.063    -653.070
  H      317.456     342.192    -656.859
  H      316.375     340.931    -657.449
  H      307.886     338.845    -653.000
  P      307.873     342.635    -651.439
  C      309.387     342.590    -649.371
  O      308.378     341.916    -650.097
  O      306.877     341.525    -652.033
  O      307.268     343.992    -651.310
  H      307.339     340.679    -652.171
  H      309.582     342.036    -648.446
  H      309.065     343.603    -649.122
  H      310.309     342.626    -649.961
  H      304.979     337.564    -655.380
  H      305.967     337.804    -656.801
  H      306.034     338.953    -655.486

 3  4  5  6  7  8  9  10  11  12  22  25  29  30  31  32 0
 6-311+G(2d,p)
 ****
 33  36  37 0
 6-311+G(2d,p)
 ****
 1  2  13  14  15  16  17  18  19  20  21  23  24  26 0
 3-21G
 ****
 27  28  34  35  38  39  40  41  42  43  44  45  46  47  48 0
 3-21G
 ****


