%nproc=1
%NoSave
%Mem=1900MB
#P OB98/GEN NMR

erre ene a

0 1
  C      118.873    -104.321     108.628
  O      118.237    -103.099     108.949
  H      119.002    -104.899     109.547
  H      119.857    -104.130     108.190
  H      118.259    -104.897     107.930
  P      117.933    -102.105     107.727
  C      120.098    -100.683     107.970
  O      119.358    -101.609     107.182
  C      121.520    -100.572     107.431
  O      122.183    -101.855     107.534
  C      121.595    -100.194     105.957
  O      121.391     -98.810     105.743
  C      122.998    -100.663     105.605
  O      123.983     -99.686     105.965
  C      123.156    -101.921     106.466
  N      125.561    -105.581     103.841
  C      126.023    -104.545     104.572
  N      125.314    -103.619     105.254
  C      123.996    -103.860     105.148
  C      123.378    -104.877     104.442
  C      124.222    -105.772     103.763
  N      123.753    -106.813     102.998
  N      122.006    -104.773     104.540
  C      121.797    -103.717     105.299
  N      122.970    -103.135     105.695
  O      117.332    -100.812     108.454
  O      117.006    -102.642     106.690
  H      124.850    -100.072     105.731
  H      116.358    -100.823     108.384
  H      127.102    -104.438     104.608
  H      120.825    -103.333     105.582
  H      124.148    -101.983     106.933
  H      123.089    -100.846     104.535
  H      120.872    -100.783     105.380
  H      122.074     -99.852     108.047
  H      120.130    -101.033     109.006
  H      119.597     -99.711     107.937
  H      124.412    -107.373     102.482
  H      122.756    -106.895     102.841
  P      120.895     -98.346     104.291
  C      123.255     -97.590     103.478
  O      122.148     -98.464     103.300
  O      120.681     -96.767     104.446
  O      119.660     -99.029     103.810
  H      119.920     -96.480     103.906
  H      123.999     -97.801     102.738
  H      123.671     -97.735     104.453
  H      122.929     -96.576     103.377

 6  7  8  9  10  11  12  13  14  15  25  28  32  33  34  35 0
 6-311+G(2d,p)
 ****
 36  37  40 0
 6-311+G(2d,p)
 ****
 1  2  3  4  5  16  17  18  19  20  21  22  23  24 0
 3-21G
 ****
 26  27  29  30  31  38  39 41  42  43  44  45  46  47  48 0
 3-21G
 ****


