%nproc=1
%NoSave
%Mem=1900MB
#P OB98/GEN NMR

erre ene a

0 1
  C     -112.134     143.920      10.419
  O     -112.111     144.992      11.369
  P     -112.014     144.600      12.924
  C     -112.012     145.999      15.142
  O     -112.146     145.982      13.726
  C     -111.627     147.397      15.612
  O     -110.366     147.807      15.028
  C     -112.621     148.485      15.223
  O     -113.792     148.424      16.025
  C     -111.775     149.737      15.417
  O     -111.731     150.101      16.808
  C     -110.380     149.251      14.957
  N     -110.023     149.726      13.628
  C     -110.136     151.099      13.424
  O     -110.534     151.879      14.290
  N     -109.789     151.550      12.175
  C     -109.384     150.772      11.127
  O     -109.079     151.232      10.035
  C     -109.334     149.325      11.391
  C     -109.650     148.874      12.608
  O     -110.468     144.214      13.047
  O     -112.972     143.526      13.316
  H     -109.892     144.754      12.481
  H     -111.062     150.808      16.885
  H     -109.850     152.543      12.012
  H     -109.040     148.675      10.572
  H     -109.623     147.808      12.818
  H     -109.609     149.601      15.659
  H     -112.165     150.596      14.864
  H     -112.892     148.380      14.166
  H     -111.506     147.370      16.706
  H     -111.237     145.289      15.448
  H     -112.953     145.675      15.591
  P     -115.079     147.711      15.374
  C     -117.269     146.799      16.474
  O     -116.232     147.754      16.485
  O     -114.608     146.181      15.356
  O     -115.450     148.258      14.036
  H     -114.179     145.904      16.184
  H     -117.732     146.769      17.464
  H     -116.891     145.802      16.235
  H     -118.025     147.088      15.739
  H     -112.200     144.322       9.429
  H     -112.982     143.295      10.607
  H     -111.238     143.343      10.511

 3  4  5  6  7  8  9  10  11  12  13  24  28  29  30  31  32 0
 6-311+G(2d,p)
 ****
 33  34 0
 6-311+G(2d,p)
 ****
 1  2  14  15  16  17  18  19  20  21  22  23  25  26  27 0
 3-21G
 ****
 35  36  37  38  39  40  41  42  43  44  45 0
 3-21G
 ****


