%nproc=1
%NoSave
%Mem=1900MB
#P OB98/GEN NMR

erre ene a

0 1
  C       43.550      66.392      -1.194
  O       43.266      65.318      -0.319
  P       43.427      65.488       1.263
  C       45.846      64.648       1.314
  O       44.982      65.749       1.567
  C       46.716      64.335       2.530
  O       47.511      65.507       2.858
  C       45.937      63.943       3.793
  O       46.739      62.986       4.492
  C       45.896      65.243       4.578
  O       45.649      65.045       5.965
  C       47.276      65.801       4.252
  N       46.660      69.556       7.665
  C       46.433      68.228       7.740
  N       46.597      67.297       6.778
  C       47.049      67.859       5.645
  C       47.296      69.201       5.409
  C       47.101      70.075       6.494
  N       47.360      71.427       6.445
  N       47.693      69.394       4.099
  C       47.684      68.193       3.560
  N       47.364      67.227       4.474
  O       42.806      64.408       2.087
  O       42.755      66.907       1.570
  H       45.426      65.907       6.364
  H       41.888      66.776       2.004
  H       46.077      67.863       8.699
  H       47.898      67.967       2.525
  H       48.066      65.318       4.838
  H       45.101      65.887       4.182
  H       44.940      63.540       3.593
  H       47.418      63.538       2.251
  H       46.489      64.910       0.468
  H       47.313      71.933       7.315
  H       47.933      71.790       5.686
  H       45.254      63.768       1.038
  P       46.069      61.644       5.059
  C       45.512      62.651       7.344
  O       44.990      62.099       6.150
  O       47.027      60.590       5.505
  O       45.159      61.138       3.839
  H       44.931      60.198       3.971
  H       45.833      61.844       8.008
  H       44.729      63.230       7.840
  H       46.362      63.307       7.137
  H       43.383      66.082      -2.205
  H       44.571      66.688      -1.076
  H       42.910      67.218      -0.964

 3  4  5  6  7  8  9  10  11  12  22  25  29  30  31  32 0
 6-311+G(2d,p)
 ****
 33  36  37 0
 6-311+G(2d,p)
 ****
 1  2  13  14  15  16  17  18  19  20  21  23  24  26 0
 3-21G
 ****
 27  28  34  35  38  39  40  41  42  43  44  45  46  47  48 0
 3-21G
 ****


