%nproc=1
%NoSave
%Mem=1900MB
#P OB98/GEN NMR

erre ene a

0 1
  C     -121.931     -55.646      14.562
  O     -122.141     -57.025      14.797
  H     -122.737     -55.083      15.040
  H     -121.945     -55.433      13.489
  H     -120.978     -55.326      14.991
  P     -121.087     -58.066      14.188
  C     -122.955     -59.678      13.429
  O     -121.867     -58.855      13.031
  C     -124.201     -59.321      12.627
  O     -124.443     -57.902      12.678
  C     -124.114     -59.695      11.148
  O     -124.401     -61.072      10.966
  C     -125.181     -58.779      10.570
  O     -126.487     -59.319      10.850
  C     -124.953     -57.491      11.379
  N     -124.184     -54.117       7.674
  C     -125.277     -54.924       7.928
  N     -126.291     -54.850       7.039
  N     -125.357     -55.742       8.945
  C     -124.240     -55.759       9.705
  C     -123.089     -55.020       9.548
  C     -123.034     -54.077       8.451
  O     -122.092     -53.331       8.201
  N     -122.142     -55.358      10.480
  C     -122.734     -56.272      11.224
  N     -124.004     -56.562      10.786
  O     -120.397     -58.963      15.171
  O     -120.055     -57.150      13.381
  H     -126.469     -60.252      10.569
  H     -119.295     -56.901      13.938
  H     -124.175     -53.521       6.864
  H     -122.290     -56.751      12.088
  H     -125.882     -56.937      11.550
  H     -125.103     -58.658       9.491
  H     -126.162     -54.466       6.112
  H     -123.147     -59.418      10.715
  H     -127.079     -55.469       7.178
  H     -125.060     -59.811      13.105
  H     -123.125     -59.507      14.497
  H     -122.709     -60.734      13.276
  P     -123.237     -62.120      10.609
  C     -124.626     -62.499       8.464
  O     -123.331     -62.319       9.022
  O     -123.269     -63.384      11.398
  O     -121.884     -61.289      10.774
  H     -121.517     -61.310      11.692
  H     -124.544     -62.619       7.404
  H     -125.230     -61.642       8.680
  H     -125.079     -63.371       8.888

 6  7  8  9  10  11  12  13  14  15  26  29  33  34 0
 6-311+G(2d,p)
 ****
 36  38  39  40  41 0
 6-311+G(2d,p)
 ****
 1  2  3  4  5  16  17  18  19  20  21  22  23  24  25 0
 3-21G
 ****
 27  28  30  31  32  35  37  42  43  44  45  46  47 0
 3-21G
 ****
 48  49 0
 3-21G
 ****


