%nproc=1
%NoSave
%Mem=1900MB
#P OB98/GEN NMR

erre ene a

0 1
  C       61.934     250.084     -36.100
  O       61.450     249.570     -34.871
  P       60.792     250.609     -33.837
  C       58.535     250.130     -35.028
  O       59.412     251.107     -34.487
  C       57.143     250.242     -34.404
  O       57.264     250.118     -32.959
  C       56.419     251.567     -34.691
  O       55.025     251.261     -34.799
  C       56.711     252.367     -33.434
  O       55.859     253.483     -33.249
  C       56.606     251.268     -32.381
  N       55.730     252.421     -27.480
  C       54.902     252.030     -28.474
  N       55.209     251.732     -29.754
  C       56.530     251.860     -29.966
  C       57.492     252.267     -29.058
  C       57.047     252.555     -27.758
  N       57.894     252.963     -26.747
  N       58.738     252.307     -29.647
  C       58.533     251.932     -30.893
  N       57.219     251.632     -31.126
  O       61.740     251.891     -33.963
  O       60.695     250.119     -32.426
  H       56.039     254.158     -33.933
  H       61.880     252.312     -33.094
  H       53.853     251.944     -28.207
  H       59.290     251.874     -31.661
  H       55.565     250.991     -32.180
  H       57.736     252.753     -33.488
  H       56.752     252.051     -35.614
  H       56.538     249.397     -34.754
  H       58.927     249.131     -34.813
  H       57.455     253.334     -25.917
  H       58.825     253.256     -27.017
  H       58.489     250.245     -36.116
  P       54.091     252.205     -35.700
  C       55.484     251.302     -37.660
  O       54.960     252.453     -37.028
  O       54.255     253.606     -34.942
  O       52.683     251.753     -35.876
  H       55.192     253.827     -34.795
  H       55.963     251.606     -38.594
  H       54.682     250.594     -37.887
  H       56.231     250.831     -37.016
  H       62.342     249.286     -36.684
  H       62.696     250.810     -35.908
  H       61.130     250.544     -36.636

 3  4  5  6  7  8  9  10  11  12  22  25  29  30  31  32 0
 6-311+G(2d,p)
 ****
 33  36  37 0
 6-311+G(2d,p)
 ****
 1  2  13  14  15  16  17  18  19  20  21  23  24  26 0
 3-21G
 ****
 27  28  34  35  38  39  40  41  42  43  44  45  46  47  48 0
 3-21G
 ****


