%nproc=1
%NoSave
%Mem=1900MB
#P OB98/GEN NMR

erre ene a

0 1
  C       30.879    -109.437     116.505
  O       30.046    -109.993     117.516
  P       29.597    -111.525     117.346
  C       27.147    -111.839     118.189
  O       28.541    -111.883     118.499
  C       26.323    -112.060     119.463
  O       26.220    -113.460     119.786
  C       26.924    -111.408     120.691
  O       26.670    -110.012     120.697
  C       26.237    -112.163     121.826
  O       25.014    -111.531     122.229
  C       25.960    -113.553     121.199
  N       26.752    -114.613     121.815
  C       26.238    -115.138     123.010
  O       25.207    -114.690     123.496
  N       26.943    -116.145     123.632
  C       28.056    -116.564     123.124
  N       28.711    -117.567     123.793
  C       28.647    -116.019     121.880
  C       27.942    -115.054     121.294
  O       30.909    -112.344     117.779
  O       29.165    -111.880     115.956
  H       25.278    -110.683     122.657
  H       30.976    -113.169     117.271
  H       29.579    -116.400     121.496
  H       28.302    -114.593     120.369
  H       24.898    -113.812     121.313
  H       26.876    -112.210     122.714
  H       28.014    -111.593     120.721
  H       25.305    -111.669     119.284
  H       28.284    -117.915     124.641
  H       26.901    -112.605     117.447
  H       29.593    -117.959     123.480
  H       26.915    -110.873     117.735
  P       27.788    -109.038     120.101
  C       26.786    -107.407     121.811
  O       27.317    -107.561     120.503
  O       27.467    -109.074     118.530
  O       29.217    -109.383     120.379
  H       28.148    -108.588     118.034
  H       26.697    -106.328     122.023
  H       27.448    -107.857     122.553
  H       25.786    -107.848     121.862
  H       31.099    -108.418     116.745
  H       30.374    -109.481     115.563
  H       31.791    -109.994     116.448

 3  4  5  6  7  8  9  10  11  12  13  21  23  27  28  29  30  32 0
 6-311+G(2d,p)
 ****
 34  35 0
 6-311+G(2d,p)
 ****
 1  2  14  15  16  17  18  19  20  22  24  25  26 0
 3-21G
 ****
 31  33  36  37  38  39  40  41  42  43  44  45  46 0
 3-21G
 ****


