%nproc=1
%NoSave
%Mem=1900MB
#P OB98/GEN NMR

erre ene a

0 1
  C      520.475     397.774     557.542
  O      519.627     396.720     557.126
  H      520.144     398.119     558.522
  H      520.423     398.608     556.841
  H      521.508     397.419     557.625
  P      519.831     396.110     555.659
  C      517.843     397.527     554.799
  O      518.419     396.230     554.912
  C      517.179     397.709     553.429
  O      518.209     397.676     552.399
  C      516.154     396.615     553.082
  O      515.165     397.206     552.230
  C      517.014     395.639     552.302
  O      516.228     394.705     551.601
  C      517.869     396.609     551.486
  N      519.048     395.980     550.915
  C      518.925     395.502     549.609
  O      517.860     395.615     549.003
  N      520.004     394.885     549.029
  C      521.085     394.697     549.720
  N      522.114     394.063     549.089
  C      521.237     395.135     551.124
  C      520.192     395.764     551.653
  O      520.458     394.758     555.596
  O      520.730     397.204     554.908
  H      515.625     395.163     550.966
  H      521.650     396.880     554.834
  H      522.152     394.935     551.661
  H      520.205     396.121     552.678
  H      517.281     397.054     550.669
  H      517.649     395.060     552.982
  H      515.684     396.175     553.966
  H      516.720     398.706     553.391
  H      521.963     393.773     548.132
  H      518.649     398.255     554.924
  H      522.993     393.844     549.534
  H      517.102     397.680     555.591
  P      513.905     398.026     552.802
  C      512.427     396.037     553.509
  O      512.582     397.140     552.626
  O      513.793     399.413     552.255
  O      514.121     398.066     554.389
  H      513.736     398.894     554.741
  H      511.510     395.531     553.290
  H      512.407     396.389     554.519
  H      513.247     395.361     553.383

 6  7  8  9  10  11  12  13  14  15  16  26  30  31  32  33  35 0
 6-311+G(2d,p)
 ****
 37  38 0
 6-311+G(2d,p)
 ****
 1  2  3  4  5  17  18  19  20  21  22  23  24  25 0
 3-21G
 ****
 27  28  29  34  36  39  40  41  42  43  44  45  46 0
 3-21G
 ****


