%nproc=1
%NoSave
%Mem=1900MB
#P OB98/GEN NMR

erre ene a

0 1
  C      -95.383      40.346    -208.767
  O      -93.997      40.187    -208.985
  H      -95.695      39.655    -207.981
  H      -95.944      40.117    -209.677
  H      -95.604      41.367    -208.441
  P      -93.295      41.044    -210.142
  C      -91.289      41.337    -208.545
  O      -91.716      40.996    -209.860
  C      -90.132      40.429    -208.113
  O      -90.683      39.125    -207.810
  C      -89.073      40.261    -209.212
  O      -87.749      40.556    -208.770
  C      -89.343      38.858    -209.746
  O      -88.223      38.223    -210.328
  C      -89.928      38.131    -208.529
  N      -90.773      36.990    -208.871
  C      -90.131      35.810    -209.236
  O      -88.913      35.645    -209.268
  N      -90.958      34.765    -209.567
  C      -92.319      34.790    -209.578
  O      -93.007      33.821    -209.878
  C      -92.938      36.071    -209.207
  C      -92.150      37.097    -208.876
  O      -93.849      42.411    -210.362
  O      -93.452      40.130    -211.450
  H      -88.508      37.340    -210.636
  H      -94.173      40.479    -212.006
  H      -90.504      33.901    -209.822
  H      -94.018      36.131    -209.213
  H      -92.573      38.057    -208.595
  H      -89.133      37.773    -207.876
  H      -90.113      38.929    -210.525
  H      -89.234      40.983    -210.022
  H      -89.696      40.828    -207.189
  H      -92.142      41.212    -207.870
  H      -90.967      42.384    -208.522
  P      -86.705      41.458    -209.570
  C      -85.392      42.654    -207.641
  O      -85.411      41.656    -208.651
  O      -87.267      42.679    -210.218
  O      -86.192      40.476    -210.744
  H      -85.999      41.044    -211.518
  H      -84.449      42.633    -207.137
  H      -86.176      42.465    -206.938
  H      -85.537      43.616    -208.087

 6  7  8  9  10  11  12  13  14  15  16  26  31  32  33  34  35 0
 6-311+G(2d,p)
 ****
 36  37 0
 6-311+G(2d,p)
 ****
 1  2  3  4  5  17  18  19  20  21  22  23  24  25 0
 3-21G
 ****
 27  28  29  30  38  39  40  41  42  43  44  45 0
 3-21G
 ****


