%nproc=1
%NoSave
%Mem=1900MB
#P OB98/GEN NMR

erre ene a

0 1
  C     -260.531     408.622     439.458
  O     -259.174     408.240     439.578
  H     -261.062     407.860     438.882
  H     -260.602     409.577     438.932
  H     -260.994     408.704     440.447
  P     -258.277     409.103     440.584
  C     -258.076     407.492     442.645
  O     -258.668     408.652     442.081
  C     -257.527     407.805     444.033
  O     -256.352     408.641     443.942
  C     -258.472     408.609     444.909
  O     -259.561     407.846     445.380
  C     -257.522     409.057     446.014
  O     -257.379     408.049     447.026
  C     -256.194     409.251     445.248
  N     -255.823     410.650     445.155
  C     -254.451     410.913     445.257
  O     -253.654     409.987     445.389
  N     -254.028     412.216     445.242
  C     -254.898     413.176     445.165
  N     -254.417     414.448     445.185
  C     -256.353     412.941     445.060
  C     -256.742     411.670     445.059
  O     -258.925     410.561     440.460
  O     -256.811     409.061     440.310
  H     -257.309     407.194     446.553
  H     -259.893     410.567     440.545
  H     -257.036     413.774     444.980
  H     -257.791     411.406     444.988
  H     -255.378     408.712     445.744
  H     -257.877     409.960     446.512
  H     -258.815     409.505     444.374
  H     -257.247     406.857     444.512
  H     -253.418     414.564     445.317
  H     -257.279     407.112     441.997
  H     -255.002     415.271     445.209
  H     -258.847     406.720     442.706
  P     -260.849     408.541     446.028
  C     -262.395     407.892     444.071
  O     -261.808     408.962     444.806
  O     -260.566     409.644     446.989
  O     -261.643     407.306     446.665
  H     -261.910     406.618     446.030
  H     -263.008     408.290     443.289
  H     -262.996     407.296     444.726
  H     -261.623     407.286     443.645

 6  7  8  9  10  11  12  13  14  15  16  26  30  31  32  33  35 0
 6-311+G(2d,p)
 ****
 37  38 0
 6-311+G(2d,p)
 ****
 1  2  3  4  5  17  18  19  20  21  22  23  24  25 0
 3-21G
 ****
 27  28  29  34  36  39  40  41  42  43  44  45  46 0
 3-21G
 ****


