%nproc=1
%NoSave
%Mem=1900MB
#P OB98/GEN NMR

erre ene a

0 1
  C       10.067     613.492    -895.290
  O       10.300     612.075    -895.260
  P       10.680     611.355    -896.640
  C       12.823     610.136    -895.800
  O       11.498     610.014    -896.300
  C       13.118     609.019    -894.790
  O       12.420     609.232    -893.550
  C       12.717     607.627    -895.280
  O       13.713     607.058    -896.120
  C       12.640     606.874    -893.960
  O       13.978     606.491    -893.550
  C       12.065     607.930    -893.010
  N        8.324     605.523    -890.600
  C        9.682     605.381    -890.480
  N       10.127     604.470    -889.590
  N       10.556     606.071    -891.180
  C        9.981     606.962    -892.020
  C        8.635     607.204    -892.230
  C        7.686     606.426    -891.450
  O        6.462     606.508    -891.520
  N        8.438     608.179    -893.170
  C        9.658     608.548    -893.520
  N       10.627     607.819    -892.860
  O       11.822     612.318    -897.230
  O        9.546     611.195    -897.600
  H       14.557     607.263    -893.730
  H       11.828     612.259    -898.210
  H        7.694     604.972    -890.040
  H        9.875     609.322    -894.230
  H       12.500     607.856    -892.000
  H       12.068     605.946    -894.050
  H        9.509     603.938    -888.980
  H       11.733     607.645    -895.750
  H       11.124     604.365    -889.470
  H       14.205     609.031    -894.590
  H       12.972     611.109    -895.330
  H       13.523     610.101    -896.660
  P       13.449     605.579    -896.690
  C       13.691     606.323    -899.170
  O       14.187     605.522    -898.110
  O       11.896     605.611    -897.060
  O       13.780     604.479    -895.740
  H       11.504     604.725    -896.940
  H       14.402     606.276    -900.000
  H       13.579     607.354    -898.850
  H       12.730     605.934    -899.510
  H        9.825     613.835    -894.306
  H        9.254     613.706    -895.952
  H       10.948     613.991    -895.634

 3  4  5  6  7  8  9  10  11  12  23  26  30  31 0
 6-311+G(2d,p)
 ****
 33  35  36  37  38 0
 6-311+G(2d,p)
 ****
 1  2  13  14  15  16  17  18  19  20  21  22  24  25 0
 3-21G
 ****
 27  28  29  32  34  39  40  41  42  43  44  45  46  47  48  49 0
 3-21G
 ****


