%nproc=1
%NoSave
%Mem=1900MB
#P OB98/GEN NMR

erre ene a

0 1
  C      -88.689     443.624      51.796
  O      -88.731     444.262      53.052
  H      -89.680     443.224      51.573
  H      -87.976     442.796      51.830
  H      -88.405     444.320      51.002
  P      -87.583     445.311      53.421
  C      -86.996     444.110      55.630
  O      -86.518     444.573      54.373
  C      -86.389     442.757      56.002
  O      -86.389     441.891      54.845
  C      -84.935     442.872      56.467
  O      -84.780     443.140      57.851
  C      -84.379     441.496      56.111
  O      -84.582     440.558      57.180
  C      -85.199     441.092      54.880
  N      -81.369     439.437      51.924
  C      -81.659     439.105      53.233
  N      -80.796     438.257      53.832
  N      -82.686     439.581      53.885
  C      -83.400     440.492      53.188
  C      -83.197     440.916      51.893
  C      -82.102     440.330      51.152
  O      -81.813     440.581      49.988
  N      -84.100     441.888      51.535
  C      -84.788     442.110      52.637
  N      -84.453     441.231      53.642
  O      -88.311     446.319      54.437
  O      -86.995     446.060      52.265
  H      -84.202     440.943      57.994
  H      -87.924     447.208      54.346
  H      -80.582     439.019      51.464
  H      -85.563     442.857      52.749
  H      -85.518     440.044      54.939
  H      -83.302     441.546      55.935
  H      -79.946     437.929      53.406
  H      -84.398     443.620      55.878
  H      -80.863     438.136      54.844
  H      -87.016     442.275      56.762
  H      -88.078     444.022      55.539
  H      -86.790     444.849      56.410
  P      -84.063     444.478      58.352
  C      -82.136     443.184      59.578
  O      -82.526     444.154      58.630
  O      -84.669     444.684      59.819
  O      -84.269     445.679      57.486
  H      -85.393     445.336      59.802
  H      -81.068     443.124      59.608
  H      -82.539     442.232      59.301
  H      -82.505     443.460      60.544

 6  7  8  9  10  11  12  13  14  15  26  29  33  34 0
 6-311+G(2d,p)
 ****
 36  38  39  40  41 0
 6-311+G(2d,p)
 ****
 1  2  3  4  5  16  17  18  19  20  21  22  23  24  25 0
 3-21G
 ****
 27  28  30  31  32  35  37  42  43  44  45  46  47 0
 3-21G
 ****
 48  49 0
 3-21G
 ****


