%nproc=1
%NoSave
%Mem=1900MB
#P OB98/GEN NMR

erre ene a

0 1
  C     -169.661     599.118    -178.317
  O     -169.406     599.721    -177.062
  P     -168.033     599.422    -176.291
  C     -167.051     601.790    -176.741
  O     -166.925     600.395    -176.919
  C     -165.709     602.499    -176.959
  O     -164.759     601.952    -176.014
  C     -165.091     602.292    -178.340
  O     -164.105     603.307    -178.552
  C     -164.413     600.950    -178.176
  O     -163.398     600.736    -179.154
  C     -163.919     601.000    -176.706
  N     -164.002     599.677    -176.063
  C     -163.388     598.616    -176.719
  O     -162.731     598.757    -177.748
  N     -163.627     597.374    -176.198
  C     -164.442     597.104    -175.138
  O     -164.884     595.992    -174.879
  C     -164.865     598.274    -174.350
  C     -164.653     599.491    -174.856
  O     -167.627     597.975    -176.842
  O     -168.130     599.445    -174.807
  H     -163.020     599.842    -178.979
  H     -167.917     597.284    -176.219
  H     -163.300     596.594    -176.757
  H     -165.385     598.102    -173.418
  H     -164.998     600.371    -174.322
  H     -162.878     601.339    -176.647
  H     -165.157     600.155    -178.294
  H     -165.815     602.287    -179.161
  H     -165.824     603.567    -176.746
  H     -167.438     601.993    -175.738
  H     -167.787     602.197    -177.447
  P     -163.361     603.342    -179.974
  C     -164.990     604.956    -181.125
  O     -164.492     603.633    -181.068
  O     -162.460     602.187    -180.267
  O     -162.553     604.726    -179.920
  H     -161.841     604.716    -180.586
  H     -165.311     605.167    -182.149
  H     -164.222     605.684    -180.838
  H     -165.846     605.049    -180.456
  H     -170.619     599.433    -178.676
  H     -169.652     598.053    -178.210
  H     -168.905     599.412    -179.014

 3  4  5  6  7  8  9  10  11  12  13  23  28  29  30  31  32 0
 6-311+G(2d,p)
 ****
 33  34 0
 6-311+G(2d,p)
 ****
 1  2  14  15  16  17  18  19  20  21  22  24  25  26  27 0
 3-21G
 ****
 35  36  37  38  39  40  41  42  43  44  45 0
 3-21G
 ****


