%nproc=1
%NoSave
%Mem=1900MB
#P OB98/GEN NMR

erre ene a

0 1
  C       19.954    -358.183     682.904
  O       19.704    -359.591     683.014
  P       18.491    -360.168     682.135
  C       17.268    -360.750     684.352
  O       17.662    -361.188     683.057
  C       16.004    -361.489     684.815
  O       14.841    -361.150     684.023
  C       16.124    -363.008     684.720
  O       16.862    -363.503     685.838
  C       14.667    -363.444     684.734
  O       14.156    -363.531     686.076
  C       13.979    -362.307     683.958
  N       10.755    -364.643     680.804
  C       10.824    -364.671     682.189
  N        9.894    -365.412     682.822
  N       11.734    -364.035     682.884
  C       12.602    -363.332     682.118
  C       12.615    -363.201     680.745
  C       11.616    -363.916     679.988
  O       11.499    -363.898     678.767
  N       13.622    -362.355     680.332
  C       14.285    -362.079     681.447
  N       13.668    -362.597     682.564
  O       19.226    -361.109     681.066
  O       17.685    -359.097     681.462
  H       14.068    -362.630     686.442
  H       19.168    -360.713     680.176
  H       10.039    -365.150     680.317
  H       15.186    -361.494     681.501
  H       13.022    -362.021     684.433
  H       14.536    -364.438     684.291
  H        9.161    -365.930     682.348
  H       16.603    -363.298     683.771
  H        9.910    -365.445     683.833
  H       15.809    -361.198     685.854
  H       17.073    -359.671     684.344
  H       18.087    -360.919     685.046
  P       18.446    -363.663     685.678
  C       18.106    -366.076     684.772
  O       18.781    -365.234     685.688
  O       19.007    -363.143     687.081
  O       19.041    -362.892     684.538
  H       19.781    -362.552     686.933
  H       18.756    -366.917     684.525
  H       17.847    -365.544     683.843
  H       17.191    -366.453     685.239
  H       20.779    -357.917     683.531
  H       19.084    -357.641     683.211
  H       20.185    -357.940     681.888

 3  4  5  6  7  8  9  10  11  12  23  26  30  31 0
 6-311+G(2d,p)
 ****
 33  35  36  37  38 0
 6-311+G(2d,p)
 ****
 1  2  13  14  15  16  17  18  19  20  21  22  24  25 0
 3-21G
 ****
 27  28  29  32  34  39  40  41  42  43  44  45  46  47  48  49 0
 3-21G
 ****


