%nproc=1
%NoSave
%Mem=1900MB
#P OB98/GEN NMR

erre ene a

0 1
  C      386.773    -477.999    -129.933
  O      387.529    -477.330    -128.937
  P      389.136    -477.257    -129.013
  C      389.470    -474.785    -129.697
  O      389.455    -476.138    -130.116
  C      390.826    -474.150    -129.993
  O      391.829    -474.768    -129.139
  C      391.296    -474.302    -131.448
  O      392.022    -473.112    -131.786
  C      392.236    -475.493    -131.374
  O      393.157    -475.535    -132.452
  C      392.868    -475.274    -129.996
  N      393.446    -476.501    -129.446
  C      394.753    -476.829    -129.826
  O      395.379    -476.125    -130.614
  N      395.320    -477.960    -129.298
  C      394.627    -478.742    -128.528
  N      395.253    -479.820    -127.988
  C      393.209    -478.491    -128.193
  C      392.701    -477.354    -128.666
  O      389.812    -478.562    -129.235
  O      389.560    -476.522    -127.659
  H      393.879    -476.144    -132.210
  H      389.644    -477.144    -126.895
  H      392.659    -479.188    -127.577
  H      391.679    -477.069    -128.449
  H      393.640    -474.500    -130.048
  H      391.650    -476.421    -131.393
  H      390.469    -474.435    -132.148
  H      390.776    -473.086    -129.717
  H      396.258    -479.863    -128.099
  H      389.292    -474.753    -128.616
  H      394.891    -480.270    -127.152
  H      388.661    -474.233    -130.194
  P      391.550    -472.282    -133.076
  C      390.005    -470.550    -131.914
  O      390.097    -471.670    -132.772
  O      391.200    -473.462    -134.115
  O      392.561    -471.358    -133.679
  H      391.291    -473.122    -135.021
  H      388.948    -470.268    -131.825
  H      390.554    -469.703    -132.328
  H      390.380    -470.802    -130.917
  H      385.732    -477.931    -129.696
  H      387.064    -479.028    -129.970
  H      386.953    -477.543    -130.884

 3  4  5  6  7  8  9  10  11  12  13  23  27  28  29  30  32 0
 6-311+G(2d,p)
 ****
 34  35 0
 6-311+G(2d,p)
 ****
 1  2  14  15  16  17  18  19  20  21  22  24  25  26 0
 3-21G
 ****
 31  33  36  37  38  39  40  41  42  43  44  45  46 0
 3-21G
 ****


