%nproc=1
%NoSave
%Mem=1900MB
#P OB98/GEN NMR

erre ene a

0 1
  C       55.519    -139.348     -89.382
  O       55.984    -139.675     -88.080
  P       57.536    -139.984     -87.823
  C       58.052    -138.967     -85.517
  O       57.712    -140.150     -86.235
  C       58.485    -139.308     -84.090
  O       57.321    -139.727     -83.337
  C       59.510    -140.436     -84.021
  O       60.422    -140.166     -82.953
  C       58.692    -141.662     -83.650
  O       59.502    -142.641     -82.974
  C       57.583    -141.039     -82.797
  N       55.110    -145.166     -80.999
  C       56.333    -144.664     -80.727
  N       56.934    -143.578     -81.259
  C       56.116    -142.960     -82.125
  C       54.839    -143.349     -82.500
  C       54.332    -144.515     -81.900
  N       53.077    -145.021     -82.168
  N       54.316    -142.480     -83.439
  C       55.252    -141.571     -83.607
  N       56.352    -141.810     -82.829
  O       58.485    -139.024     -88.456
  O       57.747    -141.473     -88.366
  H       60.148    -142.982     -83.627
  H       58.614    -141.555     -88.807
  H       56.909    -145.211     -79.982
  H       55.189    -140.730     -84.283
  H       57.892    -140.919     -81.750
  H       58.289    -142.125     -84.556
  H       60.060    -140.572     -84.959
  H       58.876    -138.397     -83.617
  H       57.170    -138.321     -85.482
  H       52.755    -145.790     -81.599
  H       52.440    -144.445     -82.703
  H       58.849    -138.435     -86.050
  P       61.913    -139.735     -83.393
  C       61.653    -137.922     -81.543
  O       62.475    -138.892     -82.152
  O       61.933    -139.074     -84.734
  O       62.676    -141.144     -83.327
  H       62.231    -141.766     -82.704
  H       62.223    -137.431     -80.746
  H       60.776    -138.398     -81.095
  H       61.340    -137.170     -82.273
  H       54.463    -139.177     -89.351
  H       55.730    -140.157     -90.050
  H       56.014    -138.464     -89.726

 3  4  5  6  7  8  9  10  11  12  22  25  29  30  31  32 0
 6-311+G(2d,p)
 ****
 33  36  37 0
 6-311+G(2d,p)
 ****
 1  2  13  14  15  16  17  18  19  20  21  23  24  26 0
 3-21G
 ****
 27  28  34  35  38  39  40  41  42  43  44  45  46  47  48 0
 3-21G
 ****


