%nproc=1
%NoSave
%Mem=1900MB
#P OB98/GEN NMR

erre ene a

0 1
  C     -206.800     232.348    -575.013
  O     -207.151     231.146    -574.359
  H     -205.797     232.241    -575.434
  H     -206.785     233.172    -574.292
  H     -207.504     232.569    -575.821
  P     -208.627     231.060    -573.740
  C     -207.482     231.296    -571.419
  O     -208.542     231.714    -572.272
  C     -206.954     232.474    -570.597
  O     -208.086     233.292    -570.171
  C     -206.177     232.064    -569.332
  O     -205.125     233.017    -569.130
  C     -207.214     232.250    -568.225
  O     -206.610     232.404    -566.943
  C     -207.936     233.491    -568.743
  N     -210.524     236.545    -565.692
  C     -209.240     236.666    -566.203
  N     -208.543     237.769    -565.849
  N     -208.695     235.779    -566.997
  C     -209.528     234.740    -567.293
  C     -210.800     234.513    -566.844
  C     -211.384     235.487    -565.944
  O     -212.507     235.425    -565.437
  N     -211.298     233.329    -567.357
  C     -210.320     232.857    -568.096
  N     -209.227     233.677    -568.101
  O     -208.798     229.497    -573.448
  O     -209.720     231.587    -574.611
  H     -206.104     233.244    -566.949
  H     -209.232     229.053    -574.202
  H     -210.885     237.252    -565.069
  H     -210.356     231.927    -568.658
  H     -207.367     234.413    -568.580
  H     -207.882     231.384    -568.185
  H     -208.910     238.515    -565.285
  H     -205.762     231.047    -569.364
  H     -207.620     237.889    -566.260
  H     -206.338     233.112    -571.247
  H     -206.670     230.893    -572.035
  H     -207.855     230.508    -570.749
  P     -203.637     232.601    -569.565
  C     -203.196     231.889    -567.100
  O     -203.068     231.570    -568.473
  O     -202.800     233.936    -569.262
  O     -203.520     232.183    -570.994
  H     -202.029     233.977    -569.859
  H     -202.770     231.104    -566.510
  H     -204.232     231.998    -566.854
  H     -202.683     232.806    -566.898

 6  7  8  9  10  11  12  13  14  15  26  29  33  34 0
 6-311+G(2d,p)
 ****
 36  38  39  40  41 0
 6-311+G(2d,p)
 ****
 1  2  3  4  5  16  17  18  19  20  21  22  23  24  25 0
 3-21G
 ****
 27  28  30  31  32  35  37  42  43  44  45  46  47 0
 3-21G
 ****
 48  49 0
 3-21G
 ****


