%nproc=1
%NoSave
%Mem=1900MB
#P OB98/GEN NMR

erre ene a

0 1
  C        5.828     328.965    -610.735
  O        7.057     329.685    -610.643
  P        8.181     329.306    -611.727
  C        9.764     331.259    -611.064
  O        9.593     329.852    -611.190
  C       11.244     331.616    -610.950
  O       11.769     331.382    -609.629
  C       12.136     330.821    -611.896
  O       12.073     331.372    -613.199
  C       13.505     330.978    -611.243
  O       14.131     332.217    -611.638
  C       13.159     331.002    -609.745
  N       16.346     328.412    -606.766
  C       16.527     329.625    -607.415
  N       17.710     330.245    -607.212
  N       15.618     330.175    -608.177
  C       14.487     329.443    -608.280
  C       14.184     328.250    -607.670
  C       15.198     327.643    -606.832
  O       15.080     326.588    -606.225
  N       12.906     327.841    -607.967
  C       12.487     328.723    -608.860
  N       13.383     329.755    -609.035
  O        7.840     330.266    -612.965
  O        8.161     327.869    -612.128
  H       14.205     332.242    -612.610
  H        7.489     329.742    -613.707
  H       17.086     328.030    -606.200
  H       11.546     328.679    -609.376
  H       13.750     331.765    -609.209
  H       14.186     330.185    -611.539
  H       18.451     329.881    -606.637
  H       11.834     329.768    -611.893
  H       17.854     331.136    -607.673
  H       11.342     332.688    -611.164
  H        9.226     331.625    -610.184
  H        9.309     331.745    -611.934
  P       11.920     330.358    -614.436
  C       10.703     332.320    -615.621
  O       11.600     331.235    -615.737
  O       10.539     329.609    -614.123
  O       13.037     329.385    -614.576
  H       10.639     328.651    -614.279
  H       10.975     333.082    -616.357
  H       10.741     332.766    -614.623
  H        9.689     331.983    -615.835
  H        5.161     329.299    -609.968
  H        6.017     327.919    -610.612
  H        5.385     329.137    -611.694

 3  4  5  6  7  8  9  10  11  12  23  26  30  31 0
 6-311+G(2d,p)
 ****
 33  35  36  37  38 0
 6-311+G(2d,p)
 ****
 1  2  13  14  15  16  17  18  19  20  21  22  24  25 0
 3-21G
 ****
 27  28  29  32  34  39  40  41  42  43  44  45  46  47  48  49 0
 3-21G
 ****


