%nproc=1
%NoSave
%Mem=1900MB
#P OB98/GEN NMR

erre ene a

0 1
  C        7.295    -367.577      10.664
  O        7.190    -368.835      10.029
  H        7.638    -366.841       9.932
  H        8.022    -367.629      11.480
  H        6.321    -367.265      11.050
  P        6.681    -370.053      10.938
  C        4.367    -371.175      11.364
  O        5.098    -370.162      10.693
  C        2.894    -371.143      10.938
  O        2.329    -369.847      11.308
  C        2.680    -371.299       9.422
  O        1.395    -371.908       9.220
  C        2.632    -369.847       8.965
  O        2.122    -369.745       7.656
  C        1.803    -369.252      10.099
  N       -0.871    -364.986      11.005
  C       -1.209    -366.292      11.079
  N       -0.440    -367.372      10.833
  C        0.813    -367.005      10.506
  C        1.309    -365.713      10.404
  C        0.401    -364.668      10.668
  N        0.742    -363.335      10.592
  N        2.645    -365.731      10.041
  C        2.945    -367.012       9.928
  N        1.868    -367.812      10.189
  O        6.798    -369.476      12.426
  O        7.431    -371.335      10.776
  H        2.792    -370.018       6.996
  H        7.647    -369.746      12.823
  H       -2.238    -366.497      11.361
  H        3.915    -367.406       9.651
  H        0.748    -369.533      10.025
  H        3.637    -369.412       8.949
  H        3.451    -371.899       8.934
  H        2.341    -371.902      11.502
  H        4.445    -371.007      12.444
  H        4.792    -372.155      11.125
  H        0.034    -362.650      10.779
  H        1.684    -363.085      10.321
  P        1.321    -373.392       8.599
  C        2.704    -375.480       9.371
  O        1.802    -374.437       9.719
  O        2.569    -373.394       7.592
  O        0.059    -373.733       7.881
  H        2.396    -374.017       6.860
  H        2.912    -376.075      10.236
  H        3.614    -375.056       9.002
  H        2.264    -376.094       8.613

 6  7  8  9  10  11  12  13  14  15  25  28  32  33  34  35 0
 6-311+G(2d,p)
 ****
 36  37  40 0
 6-311+G(2d,p)
 ****
 1  2  3  4  5  16  17  18  19  20  21  22  23  24 0
 3-21G
 ****
 26  27  29  30  31  38  39 41  42  43  44  45  46  47  48 0
 3-21G
 ****


