%nproc=1
%NoSave
%Mem=1900MB
#P OB98/GEN NMR

erre ene a

0 1
  C       -3.612     513.046     727.228
  O       -4.691     512.678     728.060
  H       -3.793     512.643     726.224
  H       -2.675     512.620     727.606
  H       -3.526     514.134     727.154
  P       -4.665     513.147     729.595
  C       -6.892     511.835     729.841
  O       -5.586     512.063     730.357
  C       -7.485     510.571     730.454
  O       -7.207     510.498     731.874
  C       -9.007     510.472     730.362
  O       -9.477     510.168     729.059
  C       -9.250     509.333     731.340
  O       -8.883     508.086     730.740
  C       -8.273     509.720     732.485
  N       -8.915     510.492     733.544
  C       -9.721     509.777     734.444
  O       -9.854     508.552     734.334
  N      -10.357     510.451     735.454
  C      -10.249     511.747     735.533
  N      -10.922     512.379     736.542
  C       -9.443     512.549     734.589
  C       -8.815     511.861     733.635
  O       -5.016     514.579     729.851
  O       -3.205     512.745     730.109
  H       -9.400     508.008     729.911
  H       -3.130     513.022     731.056
  H       -9.404     513.620     734.677
  H       -8.207     512.383     732.900
  H       -7.818     508.824     732.923
  H      -10.301     509.258     731.657
  H       -9.481     511.379     730.750
  H       -6.995     509.712     729.981
  H      -11.466     511.801     737.167
  H       -6.821     511.747     728.754
  H      -10.944     513.376     736.632
  H       -7.542     512.685     730.089
  P      -10.933     510.728     728.663
  C      -10.012     510.976     726.233
  O      -11.067     510.555     727.080
  O      -10.781     512.302     728.867
  O      -12.072     510.152     729.448
  H      -11.142     512.581     729.738
  H      -10.275     510.784     725.214
  H       -9.121     510.438     726.479
  H       -9.844     512.024     726.367

 6  7  8  9  10  11  12  13  14  15  16  26  30  31  32  33  35 0
 6-311+G(2d,p)
 ****
 37  38 0
 6-311+G(2d,p)
 ****
 1  2  3  4  5  17  18  19  20  21  22  23  24  25 0
 3-21G
 ****
 27  28  29  34  36  39  40  41  42  43  44  45  46 0
 3-21G
 ****


