%nproc=1
%NoSave
%Mem=1900MB
#P OB98/GEN NMR

erre ene a

0 1
  C      373.137       2.330      95.167
  O      373.421       3.708      95.017
  H      372.340       2.214      95.909
  H      374.024       1.790      95.515
  H      372.796       1.914      94.214
  P      374.595       4.091      93.993
  C      376.430       5.050      95.528
  O      375.945       3.903      94.842
  C      377.926       4.906      95.827
  O      378.125       3.736      96.659
  C      378.779       4.728      94.563
  O      380.012       5.432      94.733
  C      379.059       3.239      94.526
  O      380.248       2.908      93.817
  C      379.091       2.883      96.018
  N      381.086      -1.733      96.889
  C      381.637      -0.502      96.836
  N      381.032       0.680      96.616
  C      379.701       0.512      96.483
  C      378.988      -0.675      96.513
  C      379.738      -1.850      96.720
  N      379.187      -3.109      96.752
  N      377.639      -0.446      96.296
  C      377.541       0.875      96.154
  N      378.764       1.488      96.245
  O      374.450       5.413      93.313
  O      374.612       2.820      93.021
  H      380.496       1.984      94.038
  H      374.547       1.987      93.526
  H      382.719      -0.466      96.984
  H      376.617       1.411      95.971
  H      380.078       3.063      96.462
  H      378.217       2.721      94.028
  H      378.277       5.070      93.660
  H      378.255       5.770      96.406
  H      375.881       5.185      96.476
  H      379.792      -3.891      96.924
  H      378.185      -3.208      96.649
  H      376.249       5.918      94.893
  P      380.108       6.942      94.182
  C      381.661       6.516      92.148
  O      380.355       6.895      92.591
  O      381.011       7.849      94.944
  O      378.584       7.433      94.272
  H      378.576       8.377      94.546
  H      381.691       6.525      91.078
  H      381.887       5.532      92.503
  H      382.382       7.208      92.531

 6  7  8  9  10  11  12  13  14  15  25  28  32  33  34  35 0
 6-311+G(2d,p)
 ****
 36  39  40 0
 6-311+G(2d,p)
 ****
 1  2  3  4  5  16  17  18  19  20  21  22  23  24 0
 3-21G
 ****
 26  27  29  30  31  37  38  41  42  43  44  45  46  47 0
 3-21G
 ****
 48 0
 3-21G
 ****


