%nproc=1
%NoSave
%Mem=1900MB
#P OB98/GEN NMR

erre ene a

0 1
  C      295.720     -37.933      11.546
  O      294.336     -38.063      11.807
  H      296.219     -38.854      11.865
  H      296.129     -37.098      12.105
  H      295.896     -37.797      10.474
  P      293.392     -36.859      11.324
  C      291.323     -38.422      11.459
  O      291.917     -37.189      11.862
  C      290.135     -38.772      12.347
  O      290.593     -38.843      13.737
  C      288.981     -37.759      12.287
  O      287.751     -38.481      12.425
  C      289.189     -36.931      13.553
  O      288.001     -36.266      13.970
  C      289.682     -38.020      14.504
  N      288.802     -36.053      19.061
  C      287.929     -36.580      18.128
  N      286.617     -36.583      18.443
  N      288.313     -37.065      16.969
  C      289.661     -37.025      16.786
  C      290.626     -36.528      17.618
  C      290.187     -35.976      18.894
  O      290.907     -35.476      19.750
  N      291.875     -36.648      17.061
  C      291.660     -37.207      15.900
  N      290.325     -37.463      15.674
  O      293.291     -37.109       9.750
  O      293.889     -35.482      11.646
  H      287.333     -36.957      14.187
  H      293.969     -36.587       9.277
  H      288.449     -35.684      19.928
  H      292.426     -37.470      15.175
  H      288.868     -38.661      14.864
  H      289.965     -36.174      13.378
  H      286.253     -36.272      19.337
  H      288.959     -37.154      11.377
  H      285.967     -37.003      17.788
  H      289.784     -39.781      12.084
  H      292.079     -39.220      11.532
  H      291.001     -38.340      10.414
  P      287.078     -39.089      11.100
  C      286.925     -41.500      12.063
  O      286.225     -40.390      11.521
  O      288.338     -39.725      10.330
  O      286.361     -38.095      10.250
  H      288.169     -39.728       9.368
  H      286.231     -42.282      12.293
  H      287.433     -41.200      12.956
  H      287.639     -41.855      11.349

 6  7  8  9  10  11  12  13  14  15  26  29  33  34 0
 6-311+G(2d,p)
 ****
 36  38  39  40  41 0
 6-311+G(2d,p)
 ****
 1  2  3  4  5  16  17  18  19  20  21  22  23  24  25 0
 3-21G
 ****
 27  28  30  31  32  35  37  42  43  44  45  46  47 0
 3-21G
 ****
 48  49 0
 3-21G
 ****


