%nproc=1
%NoSave
%Mem=1900MB
#P OB98/GEN NMR

erre ene a

0 1
  C     -308.533    -395.135     106.776
  O     -307.450    -394.422     107.339
  H     -308.155    -395.773     105.973
  H     -309.266    -394.436     106.361
  H     -309.010    -395.764     107.534
  P     -307.797    -393.453     108.569
  C     -306.951    -391.297     107.370
  O     -306.786    -392.210     108.446
  C     -305.596    -390.699     106.975
  O     -304.971    -390.136     108.164
  C     -304.614    -391.732     106.395
  O     -303.749    -391.063     105.460
  C     -303.810    -392.121     107.625
  O     -302.620    -392.766     107.254
  C     -303.670    -390.751     108.282
  N     -299.797    -391.815     111.426
  C     -299.874    -391.741     110.078
  N     -300.944    -391.443     109.315
  C     -302.013    -391.174     110.086
  C     -302.089    -391.210     111.466
  C     -300.910    -391.555     112.151
  N     -300.834    -391.656     113.521
  N     -303.371    -390.899     111.889
  C     -304.050    -390.676     110.782
  N     -303.267    -390.828     109.669
  O     -307.247    -394.262     109.836
  O     -309.232    -393.084     108.719
  H     -302.076    -392.990     108.039
  H     -307.961    -394.805     110.221
  H     -298.951    -391.954     109.543
  H     -305.099    -390.412     110.727
  H     -302.945    -390.110     107.766
  H     -304.376    -392.807     108.262
  H     -305.105    -392.574     105.900
  H     -305.759    -389.869     106.278
  H     -307.633    -390.505     107.687
  H     -307.382    -391.820     106.512
  H     -299.960    -391.936     113.931
  H     -301.667    -391.499     114.072
  P     -304.042    -391.203     103.888
  C     -301.911    -392.472     103.072
  O     -302.666    -391.269     103.063
  O     -304.584    -389.735     103.519
  O     -305.057    -392.234     103.515
  H     -305.383    -389.816     102.962
  H     -301.031    -392.345     102.477
  H     -302.502    -393.267     102.669
  H     -301.631    -392.710     104.077

 6  7  8  9  10  11  12  13  14  15  25  28  32  33  34  35 0
 6-311+G(2d,p)
 ****
 36  37  40 0
 6-311+G(2d,p)
 ****
 1  2  3  4  5  16  17  18  19  20  21  22  23  24 0
 3-21G
 ****
 26  27  29  30  31  38  39 41  42  43  44  45  46  47  48 0
 3-21G
 ****


