%nproc=1
%NoSave
%Mem=1900MB
#P OB98/GEN NMR

erre ene a

0 1
  C     -144.070     370.014     704.223
  O     -143.375     370.041     705.453
  H     -143.341     370.064     703.408
  H     -144.732     370.880     704.153
  H     -144.652     369.093     704.115
  P     -144.171     369.687     706.800
  C     -143.380     368.384     708.881
  O     -143.058     369.375     707.919
  C     -142.105     367.785     709.489
  O     -141.475     366.919     708.505
  C     -141.067     368.836     709.917
  O     -140.351     368.299     711.039
  C     -140.167     368.892     708.698
  O     -138.927     369.485     708.998
  C     -140.130     367.410     708.297
  N     -139.676     367.208     706.924
  C     -138.736     366.199     706.721
  O     -138.273     365.514     707.636
  N     -138.312     366.027     705.438
  C     -138.678     366.785     704.364
  O     -138.232     366.601     703.238
  C     -139.627     367.866     704.644
  C     -140.086     368.027     705.893
  O     -145.234     368.649     706.674
  O     -144.764     371.094     707.290
  H     -138.470     368.984     709.711
  H     -145.605     370.953     707.772
  H     -137.643     365.283     705.275
  H     -139.930     368.495     703.815
  H     -140.783     368.821     706.130
  H     -139.461     366.844     708.967
  H     -140.627     369.487     707.904
  H     -141.508     369.802     710.168
  H     -142.391     367.145     710.339
  H     -143.950     367.593     708.374
  H     -144.003     368.821     709.670
  P     -140.865     368.493     712.545
  C     -140.201     367.171     714.668
  O     -139.740     367.943     713.556
  O     -142.236     367.945     712.808
  O     -140.834     370.076     712.791
  H     -141.510     370.325     713.459
  H     -139.365     366.866     715.261
  H     -140.720     366.306     714.311
  H     -140.863     367.764     715.264

 6  7  8  9  10  11  12  13  14  15  16  26  31  32  33  34  35 0
 6-311+G(2d,p)
 ****
 36  37 0
 6-311+G(2d,p)
 ****
 1  2  3  4  5  17  18  19  20  21  22  23  24  25 0
 3-21G
 ****
 27  28  29  30  38  39  40  41  42  43  44  45 0
 3-21G
 ****


