%nproc=1
%NoSave
%Mem=1900MB
#P OB98/GEN NMR

erre ene a

0 1
  C     -147.207     184.751    -156.341
  O     -147.713     185.902    -155.685
  P     -148.562     185.770    -154.338
  C     -147.077     187.415    -153.056
  O     -148.391     187.143    -153.522
  C     -147.103     188.192    -151.738
  O     -147.398     189.590    -152.014
  C     -148.142     187.697    -150.724
  O     -147.579     187.891    -149.422
  C     -149.299     188.664    -150.929
  O     -150.181     188.716    -149.815
  C     -148.526     189.954    -151.190
  N     -152.604     193.018    -150.819
  C     -152.095     192.091    -149.978
  N     -151.022     191.297    -150.156
  C     -150.452     191.535    -151.354
  C     -150.875     192.425    -152.329
  C     -151.998     193.212    -152.018
  N     -152.513     194.183    -152.848
  N     -150.059     192.338    -153.444
  C     -149.168     191.417    -153.142
  N     -149.330     190.949    -151.869
  O     -148.303     184.535    -153.538
  O     -150.081     185.827    -154.832
  H     -150.804     189.456    -149.948
  H     -150.480     184.938    -154.784
  H     -152.621     191.973    -149.034
  H     -148.394     191.051    -153.806
  H     -148.145     190.401    -150.267
  H     -149.880     188.361    -151.807
  H     -148.439     186.653    -150.865
  H     -146.097     188.155    -151.299
  H     -146.567     188.017    -153.815
  H     -153.237     194.777    -152.471
  H     -151.932     194.528    -153.611
  H     -146.522     186.476    -152.930
  P     -147.889     186.838    -148.252
  C     -145.452     186.103    -147.974
  O     -146.556     186.745    -147.364
  O     -148.459     185.535    -148.699
  O     -148.905     187.632    -147.296
  H     -149.367     186.997    -146.712
  H     -145.572     185.020    -147.901
  H     -144.536     186.397    -147.451
  H     -145.366     186.382    -149.027
  H     -146.670     185.047    -157.218
  H     -148.020     184.113    -156.619
  H     -146.549     184.225    -155.681

 3  4  5  6  7  8  9  10  11  12  22  25  29  30  31  32 0
 6-311+G(2d,p)
 ****
 33  36  37 0
 6-311+G(2d,p)
 ****
 1  2  13  14  15  16  17  18  19  20  21  23  24  26 0
 3-21G
 ****
 27  28  34  35  38  39  40  41  42  43  44  45  46  47  48 0
 3-21G
 ****


