%nproc=1
%NoSave
%Mem=1900MB
#P OB98/GEN NMR

erre ene a

0 1
  C     -510.200     338.425     505.779
  O     -509.181     338.434     504.800
  H     -510.870     337.580     505.581
  H     -510.777     339.353     505.726
  H     -509.774     338.306     506.781
  P     -507.955     339.438     505.031
  C     -506.175     337.818     504.038
  O     -506.844     339.065     503.928
  C     -505.467     337.487     502.729
  O     -506.455     337.047     501.755
  C     -504.717     338.678     502.099
  O     -503.524     338.199     501.488
  C     -505.679     339.161     501.028
  O     -505.050     339.896     499.982
  C     -506.274     337.833     500.561
  N     -507.537     338.008     499.849
  C     -507.508     338.732     498.660
  O     -506.484     339.160     498.124
  N     -508.728     338.950     498.071
  C     -509.939     338.550     498.556
  O     -511.006     338.802     498.004
  C     -509.907     337.797     499.818
  C     -508.722     337.566     500.393
  O     -507.304     338.913     506.395
  O     -508.307     340.886     505.085
  H     -507.717     339.364     507.159
  H     -504.388     339.291     499.567
  H     -508.724     339.471     497.212
  H     -510.854     337.482     500.237
  H     -508.667     337.031     501.346
  H     -505.563     337.297     499.920
  H     -506.445     339.800     501.475
  H     -504.467     339.481     502.815
  H     -504.779     336.653     502.890
  H     -506.912     337.032     504.243
  H     -505.463     337.860     504.865
  P     -502.227     338.029     502.418
  C     -501.744     335.982     500.854
  O     -501.230     337.075     501.605
  O     -502.806     337.096     503.581
  O     -501.658     339.331     502.870
  H     -503.468     336.451     503.264
  H     -500.936     335.462     500.382
  H     -502.417     336.348     500.107
  H     -502.265     335.314     501.508

 6  7  8  9  10  11  12  13  14  15  16  27  31  32  33  34  35 0
 6-311+G(2d,p)
 ****
 36  37 0
 6-311+G(2d,p)
 ****
 1  2  3  4  5  17  18  19  20  21  22  23  24  25 0
 3-21G
 ****
 26  28  29  30  38  39  40  41  42  43  44  45 0
 3-21G
 ****


