%nproc=1
%NoSave
%Mem=1900MB
#P OB98/GEN NMR

erre ene a

0 1
  C       68.427     -40.044     -94.985
  O       69.549     -40.904     -94.966
  H       68.605     -39.218     -94.293
  H       67.532     -40.585     -94.666
  H       68.279     -39.640     -95.990
  P       69.452     -42.221     -95.879
  C       68.594     -43.626     -93.877
  O       68.345     -43.162     -95.196
  C       67.607     -44.729     -93.504
  O       66.247     -44.276     -93.670
  C       67.750     -46.004     -94.328
  O       68.772     -46.835     -93.804
  C       66.363     -46.611     -94.175
  O       66.232     -47.290     -92.908
  C       65.462     -45.368     -94.221
  N       62.123     -46.517     -97.830
  C       62.390     -47.146     -96.630
  N       61.682     -48.265     -96.361
  N       63.281     -46.725     -95.772
  C       63.955     -45.630     -96.197
  C       63.785     -44.918     -97.362
  C       62.757     -45.365     -98.277
  O       62.417     -44.805     -99.315
  N       64.648     -43.853     -97.424
  C       65.358     -43.943     -96.315
  N       64.979     -45.008     -95.540
  O       70.826     -42.988     -95.574
  O       69.285     -41.977     -97.340
  H       65.348     -47.693     -92.853
  H       71.145     -43.398     -96.400
  H       61.405     -46.868     -98.437
  H       66.146     -43.260     -96.026
  H       64.577     -45.482     -93.585
  H       66.163     -47.357     -94.946
  H       61.212     -48.788     -97.086
  H       67.930     -45.772     -95.385
  H       61.932     -48.764     -95.516
  H       67.745     -44.945     -92.436
  H       68.482     -42.788     -93.181
  H       69.617     -44.008     -93.815
  P       69.514     -47.843     -94.804
  C       68.181     -49.968     -94.133
  O       68.495     -49.033     -95.155
  O       70.601     -48.545     -93.861
  O       70.167     -47.190     -95.976
  H       71.489     -48.190     -94.056
  H       67.495     -50.696     -94.514
  H       67.735     -49.456     -93.306
  H       69.076     -50.456     -93.809

 6  7  8  9  10  11  12  13  14  15  26  29  33  34 0
 6-311+G(2d,p)
 ****
 36  38  39  40  41 0
 6-311+G(2d,p)
 ****
 1  2  3  4  5  16  17  18  19  20  21  22  23  24  25 0
 3-21G
 ****
 27  28  30  31  32  35  37  42  43  44  45  46  47 0
 3-21G
 ****
 48  49 0
 3-21G
 ****


