%nproc=1
%NoSave
%Mem=1900MB
#P OB98/GEN NMR

erre ene a

0 1
  C      630.090     -47.464     569.439
  O      630.043     -46.146     569.952
  P      631.374     -45.447     570.512
  C      630.488     -44.975     572.876
  O      631.442     -45.690     572.098
  C      631.193     -44.165     573.972
  O      632.082     -45.004     574.729
  C      632.064     -43.027     573.443
  O      631.299     -41.943     572.960
  C      632.915     -42.728     574.678
  O      632.203     -41.903     575.597
  C      633.122     -44.148     575.264
  N      634.447     -44.670     574.982
  C      635.374     -44.586     576.031
  O      635.083     -44.015     577.078
  N      636.617     -45.147     575.849
  C      636.946     -45.640     574.686
  N      638.173     -46.229     574.586
  C      636.052     -45.596     573.520
  C      634.821     -45.122     573.740
  O      631.577     -44.030     570.087
  O      632.557     -46.383     569.966
  H      633.231     -45.823     569.540
  H      632.005     -41.067     575.137
  H      636.395     -45.957     572.557
  H      634.083     -45.087     572.940
  H      632.963     -44.121     576.344
  H      633.840     -42.206     574.410
  H      632.708     -43.410     572.643
  H      630.423     -43.769     574.647
  H      638.744     -46.258     575.416
  H      629.789     -45.685     573.332
  H      638.388     -46.904     573.860
  H      629.912     -44.303     572.224
  P      631.658     -41.387     571.503
  C      633.821     -40.192     572.277
  O      633.241     -41.192     571.444
  O      631.080     -39.894     571.525
  O      631.067     -42.186     570.371
  H      630.723     -39.669     570.646
  H      634.891     -40.415     572.390
  H      633.363     -40.184     573.265
  H      633.703     -39.216     571.799
  H      629.113     -47.756     569.116
  H      630.427     -48.132     570.203
  H      630.766     -47.500     568.610

 3  4  5  6  7  8  9  10  11  12  13  24  27  28  29  30  32 0
 6-311+G(2d,p)
 ****
 34  35 0
 6-311+G(2d,p)
 ****
 1  2  14  15  16  17  18  19  20  21  22  23  25  26 0
 3-21G
 ****
 31  33  36  37  38  39  40  41  42  43  44  45  46 0
 3-21G
 ****


