%nproc=1
%NoSave
%Mem=1900MB
#P OB98/GEN NMR

erre ene a

0 1
  C      590.912     709.944      70.605
  O      589.877     709.284      71.309
  P      588.533     708.936      70.503
  C      587.140     709.486      72.644
  O      587.327     709.692      71.247
  C      586.132     710.490      73.192
  O      586.689     711.824      73.140
  C      584.819     710.565      72.422
  O      583.969     709.458      72.722
  C      584.288     711.917      72.908
  O      583.710     711.780      74.204
  C      585.572     712.749      72.992
  N      584.251     717.070      70.565
  C      583.830     716.518      71.715
  N      584.208     715.359      72.297
  C      585.152     714.755      71.529
  C      585.658     715.175      70.323
  C      585.192     716.404      69.838
  N      585.628     716.970      68.651
  N      586.599     714.285      69.845
  C      586.649     713.327      70.749
  N      585.797     713.567      71.802
  O      588.278     707.383      70.878
  O      588.604     709.135      69.014
  H      582.976     711.135      74.122
  H      587.887     706.898      70.133
  H      583.071     717.093      72.280
  H      587.279     712.449      70.709
  H      585.587     713.423      73.853
  H      583.528     712.334      72.241
  H      585.018     710.616      71.331
  H      585.947     710.244      74.256
  H      588.089     709.610      73.152
  H      585.124     717.754      68.303
  H      586.228     716.403      68.058
  H      586.802     708.454      72.797
  P      582.771     709.144      71.702
  C      582.169     707.142      73.186
  O      581.720     708.346      72.608
  O      583.403     707.987      70.793
  O      582.241     710.338      70.967
  H      583.825     707.293      71.329
  H      581.375     706.710      73.826
  H      583.061     707.319      73.819
  H      582.409     706.408      72.417
  H      591.740     710.111      71.262
  H      590.552     710.883      70.239
  H      591.227     709.337      69.782

 3  4  5  6  7  8  9  10  11  12  22  25  29  30  31  32 0
 6-311+G(2d,p)
 ****
 33  36  37 0
 6-311+G(2d,p)
 ****
 1  2  13  14  15  16  17  18  19  20  21  23  24  26 0
 3-21G
 ****
 27  28  34  35  38  39  40  41  42  43  44  45  46  47  48 0
 3-21G
 ****


