%nproc=1
%NoSave
%Mem=1900MB
#P OB98/GEN NMR

erre ene a

0 1
  C      610.470     443.096     289.458
  O      611.778     442.662     289.148
  H      609.851     442.217     289.669
  H      610.038     443.641     288.615
  H      610.488     443.735     290.346
  P      612.828     443.787     288.707
  C      612.595     445.700     286.959
  O      612.356     444.332     287.271
  C      611.837     446.073     285.688
  O      610.410     446.008     285.926
  C      612.107     447.489     285.200
  O      613.330     447.604     284.501
  C      610.901     447.707     284.294
  O      611.113     447.183     282.979
  C      609.783     446.938     285.027
  N      608.867     447.846     285.720
  C      607.903     448.469     284.920
  O      607.809     448.270     283.713
  N      607.068     449.337     285.554
  C      607.138     449.696     286.876
  O      606.397     450.542     287.376
  C      608.188     449.023     287.670
  C      608.998     448.145     287.062
  O      614.150     442.945     288.371
  O      613.084     444.844     289.732
  H      614.810     443.074     289.078
  H      610.270     447.299     282.500
  H      606.368     449.801     284.995
  H      608.263     449.291     288.718
  H      609.784     447.661     287.630
  H      609.197     446.349     284.317
  H      610.686     448.772     284.182
  H      612.050     448.195     286.041
  H      612.085     445.345     284.903
  H      613.667     445.855     286.782
  H      612.281     446.321     287.806
  P      613.914     449.082     284.254
  C      613.141     451.018     282.648
  O      613.177     449.625     282.943
  O      615.407     448.740     283.778
  O      613.818     449.954     285.464
  H      615.457     447.854     283.361
  H      612.605     451.176     281.735
  H      614.140     451.386     282.543
  H      612.650     451.539     283.444

 6  7  8  9  10  11  12  13  14  15  16  27  31  32  33  34  35 0
 6-311+G(2d,p)
 ****
 36  37 0
 6-311+G(2d,p)
 ****
 1  2  3  4  5  17  18  19  20  21  22  23  24  25 0
 3-21G
 ****
 26  28  29  30  38  39  40  41  42  43  44  45 0
 3-21G
 ****


