%nproc=1
%NoSave
%Mem=1900MB
#P OB98/GEN NMR

erre ene a

0 1
  C     -157.890     174.539    -894.350
  O     -157.057     175.499    -893.730
  H     -158.442     173.998    -893.570
  H     -157.280     173.820    -894.910
  H     -158.603     175.023    -895.020
  P     -156.287     176.523    -894.710
  C     -154.003     175.260    -894.970
  O     -155.244     175.627    -895.530
  C     -153.167     174.445    -895.970
  O     -152.940     175.253    -897.150
  C     -151.793     174.014    -895.430
  O     -151.483     172.712    -895.950
  C     -150.847     175.044    -896.010
  O     -149.514     174.561    -896.080
  C     -151.520     175.324    -897.380
  N     -151.111     176.617    -897.930
  C     -149.915     176.641    -898.670
  O     -149.253     175.605    -898.800
  N     -149.485     177.833    -899.190
  C     -150.155     178.920    -898.950
  N     -149.665     180.079    -899.460
  C     -151.384     178.948    -898.130
  C     -151.820     177.772    -897.690
  O     -155.373     177.334    -893.670
  O     -157.196     177.379    -895.540
  H     -149.524     173.653    -896.470
  H     -154.928     176.759    -893.020
  H     -151.905     179.891    -897.950
  H     -152.729     177.703    -897.090
  H     -151.254     174.536    -898.100
  H     -150.853     175.955    -895.400
  H     -151.770     173.982    -894.330
  H     -153.759     173.578    -896.290
  H     -148.787     180.017    -900.000
  H     -154.162     174.663    -894.050
  H     -150.058     180.993    -899.290
  H     -153.471     176.169    -894.680
  P     -151.845     171.401    -895.110
  C     -149.437     170.826    -894.330
  O     -150.753     171.222    -893.940
  O     -152.122     170.176    -895.910
  O     -153.150     171.862    -894.290
  H     -153.775     171.113    -894.290
  H     -148.817     170.745    -893.462
  H     -149.027     171.558    -894.994
  H     -149.482     169.879    -894.826

 6  7  8  9  10  11  12  13  14  15  16  26  30  31  32  33  35 0
 6-311+G(2d,p)
 ****
 37  38 0
 6-311+G(2d,p)
 ****
 1  2  3  4  5  17  18  19  20  21  22  23  24  25 0
 3-21G
 ****
 27  28  29  34  36  39  40  41  42  43  44  45  46 0
 3-21G
 ****


