%nproc=1
%NoSave
%Mem=1900MB
#P OB98/GEN NMR

erre ene a

0 1
  C       48.165    -614.616     151.213
  O       46.986    -615.276     150.803
  H       48.739    -614.340     150.326
  H       48.771    -615.285     151.831
  H       47.924    -613.706     151.773
  P       45.899    -615.586     151.945
  C       45.973    -616.593     154.336
  O       46.692    -616.292     153.148
  C       46.307    -618.004     154.814
  O       47.744    -618.179     154.885
  C       45.767    -618.339     156.197
  O       44.406    -618.744     156.149
  C       46.672    -619.502     156.578
  O       46.241    -620.696     155.892
  C       48.026    -619.038     156.029
  N       51.302    -619.412     159.883
  C       50.673    -620.405     159.151
  N       50.949    -621.678     159.499
  N       49.845    -620.169     158.166
  C       49.653    -618.847     157.934
  C       50.219    -617.775     158.587
  C       51.137    -618.049     159.668
  O       51.740    -617.210     160.332
  N       49.792    -616.584     158.058
  C       48.954    -616.934     157.105
  N       48.829    -618.295     156.989
  O       45.035    -616.786     151.317
  O       45.032    -614.436     152.329
  H       45.276    -620.764     156.026
  H       44.106    -616.678     151.593
  H       51.919    -619.648     160.637
  H       48.416    -616.241     156.468
  H       48.640    -619.868     155.672
  H       46.653    -619.721     157.644
  H       51.541    -621.926     160.279
  H       45.919    -617.513     156.903
  H       50.526    -622.422     158.956
  H       45.929    -618.712     154.066
  H       44.899    -616.525     154.133
  H       46.237    -615.861     155.104
  P       43.671    -619.057     157.548
  C       44.496    -620.361     159.638
  O       44.516    -620.243     158.219
  O       42.318    -619.783     157.088
  O       43.413    -617.867     158.404
  H       41.640    -619.693     157.786
  H       45.101    -621.192     159.935
  H       43.490    -620.516     159.969
  H       44.881    -619.464     160.076

 6  7  8  9  10  11  12  13  14  15  26  29  33  34 0
 6-311+G(2d,p)
 ****
 36  38  39  40  41 0
 6-311+G(2d,p)
 ****
 1  2  3  4  5  16  17  18  19  20  21  22  23  24  25 0
 3-21G
 ****
 27  28  30  31  32  35  37  42  43  44  45  46  47 0
 3-21G
 ****
 48  49 0
 3-21G
 ****


