%nproc=1
%NoSave
%Mem=1900MB
#P OB98/GEN NMR

erre ene a

0 1
  C     -483.024     -69.054     209.430
  O     -483.145     -69.348     208.057
  H     -483.581     -68.137     209.642
  H     -481.970     -68.892     209.679
  H     -483.427     -69.858     210.050
  P     -482.833     -70.834     207.557
  C     -480.470     -70.302     206.662
  O     -481.241     -71.051     207.596
  C     -478.970     -70.411     206.953
  O     -478.692     -69.874     208.265
  C     -478.476     -71.860     206.951
  O     -478.099     -72.350     205.679
  C     -477.272     -71.780     207.886
  O     -476.075     -71.434     207.168
  C     -477.651     -70.661     208.863
  N     -476.401     -71.733     213.706
  C     -475.574     -71.389     212.652
  N     -474.249     -71.363     212.924
  N     -476.011     -71.112     211.451
  C     -477.348     -71.275     211.310
  C     -478.264     -71.632     212.276
  C     -477.779     -71.861     213.618
  O     -478.471     -72.154     214.587
  N     -479.532     -71.736     211.752
  C     -479.363     -71.530     210.459
  N     -478.070     -71.167     210.157
  O     -483.134     -70.772     205.985
  O     -483.641     -71.916     208.204
  H     -476.093     -71.900     206.306
  H     -483.455     -71.639     205.676
  H     -476.008     -71.903     214.609
  H     -480.146     -71.584     209.713
  H     -476.807     -69.986     209.045
  H     -477.083     -72.745     208.363
  H     -473.852     -71.650     213.802
  H     -479.216     -72.524     207.407
  H     -473.598     -71.301     212.136
  H     -478.418     -69.796     206.232
  H     -480.794     -69.265     206.752
  H     -480.686     -70.630     205.642
  P     -478.532     -73.811     205.198
  C     -476.252     -75.082     205.470
  O     -477.577     -74.876     205.904
  O     -478.062     -73.847     203.670
  O     -479.984     -74.128     205.347
  H     -478.814     -73.665     203.075
  H     -475.791     -75.834     206.076
  H     -475.702     -74.168     205.557
  H     -476.257     -75.400     204.448

 6  7  8  9  10  11  12  13  14  15  26  29  33  34 0
 6-311+G(2d,p)
 ****
 36  38  39  40  41 0
 6-311+G(2d,p)
 ****
 1  2  3  4  5  16  17  18  19  20  21  22  23  24  25 0
 3-21G
 ****
 27  28  30  31  32  35  37  42  43  44  45  46  47 0
 3-21G
 ****
 48  49 0
 3-21G
 ****


