%nproc=1
%NoSave
%Mem=1900MB
#P OB98/GEN NMR

erre ene a

0 1
  C     -133.282      53.134    -480.810
  O     -132.722      52.088    -481.576
  H     -132.496      53.799    -480.441
  H     -133.967      53.708    -481.440
  H     -133.843      52.720    -479.965
  P     -131.602      51.192    -480.850
  C     -132.237      49.469    -482.682
  O     -131.200      50.038    -481.896
  C     -131.669      48.955    -484.006
  O     -130.501      48.135    -483.756
  C     -132.615      48.075    -484.805
  O     -133.586      48.843    -485.521
  C     -131.630      47.392    -485.752
  O     -131.319      48.275    -486.843
  C     -130.404      47.196    -484.863
  N     -130.062      42.189    -485.958
  C     -130.183      43.276    -486.751
  N     -130.273      44.578    -486.391
  C     -130.220      44.705    -485.055
  C     -130.103      43.682    -484.123
  C     -130.031      42.374    -484.619
  N     -129.920      41.267    -483.801
  N     -130.067      44.197    -482.842
  C     -130.170      45.504    -482.986
  N     -130.269      45.861    -484.324
  O     -132.427      50.401    -479.726
  O     -130.465      51.951    -480.263
  H     -132.168      48.490    -487.280
  H     -131.869      50.297    -478.936
  H     -130.192      43.085    -487.823
  H     -130.163      46.223    -482.185
  H     -129.477      47.442    -485.401
  H     -132.031      46.466    -486.181
  H     -133.098      47.325    -484.167
  H     -131.349      49.826    -484.600
  H     -132.989      50.239    -482.900
  H     -129.673      40.384    -484.211
  H     -129.897      41.423    -482.794
  H     -132.701      48.658    -482.124
  P     -134.913      48.092    -485.993
  C     -135.569      50.563    -486.430
  O     -135.788      49.192    -486.773
  O     -135.725      47.863    -484.623
  O     -134.694      46.799    -486.723
  H     -136.322      47.102    -484.718
  H     -136.211      51.185    -487.019
  H     -134.548      50.820    -486.623
  H     -135.784      50.710    -485.392

 6  7  8  9  10  11  12  13  14  15  25  28  32  33  34  35 0
 6-311+G(2d,p)
 ****
 36  39  40 0
 6-311+G(2d,p)
 ****
 1  2  3  4  5  16  17  18  19  20  21  22  23  24 0
 3-21G
 ****
 26  27  29  30  31  37  38  41  42  43  44  45  46  47  48 0
 3-21G
 ****


