%nproc=1
%NoSave
%Mem=1900MB
#P OB98/GEN NMR

erre ene a

0 1
  C       44.572      51.584     112.654
  O       44.128      52.187     113.852
  H       44.343      50.515     112.694
  H       45.653      51.705     112.554
  H       44.068      52.016     111.786
  P       44.096      53.786     113.947
  C       46.616      54.324     113.852
  O       45.382      54.319     113.150
  C       47.781      54.604     112.898
  O       47.695      55.993     112.455
  C       49.173      54.412     113.534
  O       50.058      53.966     112.499
  C       49.498      55.832     113.956
  O       50.855      55.985     114.279
  C       48.975      56.594     112.736
  N       48.853      58.030     112.953
  C       49.854      58.842     112.434
  O       50.813      58.422     111.790
  N       49.725      60.182     112.690
  C       48.722      60.769     113.402
  O       48.643      61.977     113.583
  C       47.708      59.854     113.951
  C       47.817      58.547     113.704
  O       43.924      54.351     115.317
  O       42.884      54.197     112.984
  H       42.081      54.350     113.517
  H       51.415      55.851     113.484
  H       50.443      60.786     112.320
  H       46.910      60.287     114.538
  H       47.090      57.843     114.095
  H       49.612      56.416     111.864
  H       48.931      56.101     114.852
  H       49.172      53.688     114.353
  H       47.666      53.978     112.004
  H       46.748      53.343     114.320
  H       46.583      55.090     114.634
  P       50.763      52.524     112.503
  C       52.382      52.964     114.461
  O       51.289      52.193     113.984
  O       51.816      52.369     111.454
  O       49.581      51.469     112.272
  H       49.913      50.729     111.729
  H       52.635      52.649     115.452
  H       52.110      53.999     114.474
  H       53.225      52.825     113.816

 6  7  8  9  10  11  12  13  14  15  16  27  31  32  33  34  35 0
 6-311+G(2d,p)
 ****
 36  37 0
 6-311+G(2d,p)
 ****
 1  2  3  4  5  17  18  19  20  21  22  23  24  25 0
 3-21G
 ****
 26  28  29  30  38  39  40  41  42  43  44  45 0
 3-21G
 ****


