%nproc=1
%NoSave
%Mem=1900MB
#P OB98/GEN NMR

erre ene a

0 1
  C     -231.164     229.617     418.030
  O     -229.973     230.237     417.597
  P     -228.581     229.450     417.578
  C     -227.637     229.138     415.201
  O     -228.529     228.635     416.192
  C     -227.255     228.025     414.215
  O     -226.663     226.922     414.969
  C     -228.462     227.475     413.435
  O     -228.297     227.462     412.014
  C     -228.687     226.115     414.077
  O     -229.416     225.212     413.270
  C     -227.260     225.712     414.455
  N     -227.225     224.619     415.420
  C     -227.555     223.347     414.957
  O     -227.863     223.088     413.793
  N     -227.585     222.356     415.894
  C     -227.440     222.522     417.235
  O     -227.578     221.600     418.031
  C     -227.127     223.888     417.677
  C     -227.013     224.854     416.765
  O     -228.299     228.619     418.785
  O     -227.511     230.613     417.321
  H     -229.462     224.356     413.735
  H     -227.636     231.109     416.491
  H     -227.825     221.432     415.569
  H     -227.014     224.053     418.737
  H     -226.782     225.875     417.056
  H     -226.686     225.416     413.578
  H     -229.275     226.273     414.990
  H     -229.354     228.101     413.591
  H     -226.496     228.430     413.540
  H     -226.737     229.508     415.687
  H     -228.102     229.982     414.678
  P     -229.432     227.842     410.953
  C     -229.269     230.430     410.805
  O     -229.965     229.307     411.292
  O     -230.493     226.810     410.762
  O     -228.611     228.067     409.595
  H     -229.176     227.849     408.836
  H     -229.421     231.272     411.489
  H     -229.673     230.705     409.824
  H     -228.199     230.232     410.717
  H     -231.973     230.314     417.964
  H     -231.051     229.297     419.045
  H     -231.371     228.770     417.410

 3  4  5  6  7  8  9  10  11  12  13  23  28  29  30  31  32 0
 6-311+G(2d,p)
 ****
 33  34 0
 6-311+G(2d,p)
 ****
 1  2  14  15  16  17  18  19  20  21  22  24  25  26  27 0
 3-21G
 ****
 35  36  37  38  39  40  41  42  43  44  45 0
 3-21G
 ****


