%nproc=1
%NoSave
%Mem=1900MB
#P OB98/GEN NMR

erre ene a

0 1
  C      314.848      21.624    -897.480
  O      314.098      22.217    -896.420
  P      314.934      23.095    -895.350
  C      313.423      25.204    -895.610
  O      314.724      24.644    -895.740
  C      313.502      26.606    -895.000
  O      314.113      26.574    -893.700
  C      314.342      27.591    -895.810
  O      313.631      28.111    -896.910
  C      314.602      28.677    -894.770
  O      313.470      29.567    -894.700
  C      314.724      27.864    -893.470
  N      318.043      28.255    -889.650
  C      316.702      28.577    -889.690
  N      316.155      29.058    -888.550
  N      315.954      28.458    -890.760
  C      316.629      27.940    -891.820
  C      317.954      27.581    -891.910
  C      318.768      27.758    -890.720
  O      319.967      27.516    -890.640
  N      318.257      27.086    -893.150
  C      317.123      27.131    -893.810
  N      316.100      27.658    -893.050
  O      316.456      22.816    -895.770
  O      314.667      22.735    -893.930
  H      312.712      29.024    -894.390
  H      317.041      22.932    -895.000
  H      318.568      28.380    -888.800
  H      316.981      26.788    -894.830
  H      314.176      28.340    -892.640
  H      315.474      29.292    -895.010
  H      316.652      29.114    -887.670
  H      315.289      27.130    -896.120
  H      315.160      29.272    -888.550
  H      312.481      26.984    -894.900
  H      312.809      24.570    -894.970
  H      312.944      25.231    -896.600
  P      314.351      28.069    -898.350
  C      312.466      26.545    -899.260
  O      313.849      26.719    -899.040
  O      315.885      27.763    -897.970
  O      314.212      29.331    -899.150
  H      316.477      28.150    -898.650
  H      311.993      27.461    -899.630
  H      311.988      26.235    -898.320
  H      312.318      25.748    -900.000
  H      314.189      21.072    -898.118
  H      315.584      20.964    -897.070
  H      315.333      22.391    -898.046

 3  4  5  6  7  8  9  10  11  12  23  26  30  31  33  0
 6-311+G(2d,p)
 ****
 35  36  37  38 0
 6-311+G(2d,p)
 ****
 1  2  13  14  15  16  17  18  19  20  21  22  24  25  27  28  29 0
 3-21G
 ****
 32  34  39  40  41  42  43  44  45  46  47  48  49 0
 3-21G
 ****


