%nproc=1
%NoSave
%Mem=1900MB
#P OB98/GEN NMR

erre ene a

0 1
  C      320.431     454.826     490.420
  O      319.928     454.492     491.697
  P      318.362     454.636     492.001
  C      318.646     455.719     494.315
  O      318.161     455.887     492.981
  C      319.257     457.025     494.819
  O      320.354     457.433     493.970
  C      318.287     458.199     494.836
  O      317.394     458.105     495.930
  C      319.256     459.378     494.895
  O      319.698     459.601     496.243
  C      320.418     458.874     494.029
  N      322.318     462.508     490.982
  C      322.411     462.310     492.323
  N      321.846     461.341     493.064
  C      321.096     460.528     492.293
  C      320.876     460.634     490.926
  C      321.549     461.664     490.253
  N      321.516     461.838     488.890
  N      320.023     459.627     490.498
  C      319.719     458.953     491.595
  N      320.399     459.420     492.688
  O      317.682     453.381     492.431
  O      317.751     455.165     490.618
  H      319.919     458.731     496.625
  H      317.100     454.516     490.282
  H      323.031     463.024     492.858
  H      319.039     458.113     491.634
  H      321.393     459.130     494.469
  H      318.808     460.311     494.542
  H      317.732     458.237     493.888
  H      319.663     456.845     495.831
  H      319.404     454.929     494.313
  H      322.146     462.524     488.499
  H      321.207     461.061     488.311
  H      317.820     455.411     494.964
  P      315.834     457.887     495.670
  C      315.247     459.608     497.474
  O      315.091     459.231     496.120
  O      315.255     456.622     496.218
  O      315.711     457.933     494.069
  H      314.985     457.340     493.778
  H      314.590     458.996     498.103
  H      314.960     460.656     497.585
  H      316.278     459.485     497.804
  H      321.489     454.669     490.401
  H      320.220     455.854     490.211
  H      319.965     454.209     489.681

 3  4  5  6  7  8  9  10  11  12  22  25  29  30  31  32 0
 6-311+G(2d,p)
 ****
 33  36  37 0
 6-311+G(2d,p)
 ****
 1  2  13  14  15  16  17  18  19  20  21  23  24  26 0
 3-21G
 ****
 27  28  34  35  38  39  40  41  42  43  44  45  46  47  48 0
 3-21G
 ****


