%nproc=1
%NoSave
%Mem=1900MB
#P OB98/GEN NMR

erre ene a

0 1
  C     -377.257    -251.764     511.771
  O     -376.767    -250.614     511.082
  P     -376.082    -250.635     509.639
  C     -374.183    -248.831     509.723
  O     -375.504    -249.170     509.341
  C     -373.759    -247.411     509.294
  O     -373.715    -247.338     507.845
  C     -374.823    -246.398     509.741
  O     -374.804    -245.879     511.067
  C     -374.813    -245.331     508.657
  O     -373.949    -244.223     508.988
  C     -374.275    -246.071     507.438
  N     -376.289    -244.592     502.958
  C     -375.260    -244.020     503.687
  N     -374.733    -242.875     503.191
  N     -374.821    -244.517     504.818
  C     -375.488    -245.613     505.242
  C     -376.541    -246.259     504.620
  C     -376.988    -245.740     503.351
  O     -377.884    -246.215     502.651
  N     -376.979    -247.323     505.353
  C     -376.220    -247.297     506.446
  N     -375.294    -246.272     506.419
  O     -376.881    -251.289     508.560
  O     -374.754    -251.530     509.879
  H     -373.866    -243.670     508.198
  H     -374.592    -252.007     509.043
  H     -376.587    -244.184     502.094
  H     -376.303    -247.996     507.266
  H     -373.453    -245.517     506.948
  H     -375.809    -244.905     508.521
  H     -375.112    -242.391     502.401
  H     -375.811    -246.883     509.656
  H     -374.135    -242.342     503.827
  H     -372.751    -247.168     509.651
  H     -373.507    -249.579     509.261
  H     -374.054    -248.946     510.800
  P     -375.502    -246.526     512.348
  C     -376.470    -244.609     513.752
  O     -375.375    -245.477     513.554
  O     -374.486    -247.710     512.787
  O     -376.875    -247.079     512.122
  H     -374.927    -248.322     513.396
  H     -376.137    -243.770     514.378
  H     -377.267    -245.141     514.254
  H     -376.828    -244.216     512.797
  H     -377.665    -251.467     512.715
  H     -376.454    -252.453     511.930
  H     -378.019    -252.233     511.184

 3  4  5  6  7  8  9  10  11  12  23  26  30  31 0
 6-311+G(2d,p)
 ****
 33  35  36  37  38 0
 6-311+G(2d,p)
 ****
 1  2  13  14  15  16  17  18  19  20  21  22  24  25 0
 3-21G
 ****
 27  28  29  32  34  39  40  41  42  43  44  45  46  47  48  49 0
 3-21G
 ****


