%nproc=1
%NoSave
%Mem=1900MB
#P OB98/GEN NMR

erre ene a

0 1
  C       14.438     220.759      63.503
  O       14.690     221.707      64.522
  H       13.678     221.161      62.829
  H       14.065     219.828      63.939
  H       15.352     220.563      62.934
  P       15.799     221.311      65.614
  C       16.068     219.385      67.341
  O       15.213     220.054      66.419
  C       15.249     218.884      68.528
  O       14.723     220.007      69.269
  C       14.035     218.054      68.131
  O       14.375     216.723      67.785
  C       13.185     218.154      69.392
  O       13.595     217.196      70.374
  C       13.482     219.577      69.881
  N       10.308     223.105      71.764
  C       11.325     222.414      72.326
  N       12.134     221.499      71.749
  C       11.824     221.345      70.451
  C       10.818     221.980      69.741
  C       10.035     222.905      70.451
  N        8.985     223.591      69.889
  N       10.784     221.530      68.435
  C       11.756     220.641      68.355
  N       12.414     220.501      69.546
  O       15.714     222.514      66.666
  O       17.181     221.138      65.078
  H       12.979     217.294      71.126
  H       16.438     223.146      66.499
  H       11.508     222.616      73.376
  H       12.017     220.078      67.468
  H       13.622     219.620      70.965
  H       12.135     217.976      69.167
  H       13.497     218.541      67.305
  H       15.910     218.312      69.195
  H       16.831     220.083      67.701
  H       16.558     218.551      66.828
  H        8.425     224.186      70.476
  H        8.701     223.364      68.946
  P       13.809     216.144      66.402
  C       11.447     215.436      65.555
  O       12.302     215.668      66.664
  O       14.614     214.773      66.205
  O       13.973     217.058      65.233
  H       14.792     214.629      65.254
  H       10.485     215.126      65.905
  H       11.865     214.669      64.937
  H       11.347     216.337      64.987

 6  7  8  9  10  11  12  13  14  15  25  28  32  33  34  35 0
 6-311+G(2d,p)
 ****
 36  37  40 0
 6-311+G(2d,p)
 ****
 1  2  3  4  5  16  17  18  19  20  21  22  23  24 0
 3-21G
 ****
 26  27  29  30  31  38  39 41  42  43  44  45  46  47  48 0
 3-21G
 ****


