%nproc=1
%NoSave
%Mem=1900MB
#P OB98/GEN NMR

erre ene a

0 1
  C      289.623    -151.874      57.830
  O      289.420    -151.051      58.982
  P      288.879    -151.765      60.313
  C      287.102    -150.119      61.272
  O      288.429    -150.631      61.351
  C      286.984    -148.828      62.088
  O      287.442    -149.025      63.441
  C      287.838    -147.698      61.543
  O      287.222    -147.106      60.414
  C      287.941    -146.768      62.745
  O      286.871    -145.808      62.769
  C      287.835    -147.738      63.944
  N      289.069    -147.823      64.709
  C      289.308    -146.776      65.605
  O      288.507    -145.843      65.697
  N      290.457    -146.804      66.354
  C      291.304    -147.774      66.200
  N      292.427    -147.743      66.967
  C      291.102    -148.883      65.243
  C      289.975    -148.843      64.537
  O      290.206    -152.365      60.973
  O      287.860    -152.829      60.058
  H      287.116    -145.158      63.461
  H      290.006    -153.195      61.444
  H      291.840    -149.665      65.147
  H      289.747    -149.616      63.811
  H      287.040    -147.412      64.628
  H      288.874    -146.196      62.731
  H      288.836    -148.071      61.278
  H      285.930    -148.526      62.111
  H      292.532    -146.968      67.607
  H      286.391    -150.860      61.641
  H      293.155    -148.442      66.923
  H      286.855    -149.942      60.220
  P      287.939    -147.275      58.996
  C      287.613    -144.945      57.964
  O      287.153    -146.283      58.010
  O      287.405    -148.708      58.514
  O      289.430    -147.196      58.968
  H      287.852    -148.973      57.691
  H      287.138    -144.441      57.116
  H      288.696    -144.914      57.829
  H      287.334    -144.423      58.883
  H      289.983    -151.273      57.021
  H      288.697    -152.331      57.550
  H      290.342    -152.634      58.057

 3  4  5  6  7  8  9  10  11  12  13  21  23  27  28  29  30  32 0
 6-311+G(2d,p)
 ****
 34  35 0
 6-311+G(2d,p)
 ****
 1  2  14  15  16  17  18  19  20  22  24  25  26 0
 3-21G
 ****
 31  33  36  37  38  39  40  41  42  43  44  45  46 0
 3-21G
 ****


