%nproc=1
%NoSave
%Mem=1900MB
#P OB98/GEN NMR

erre ene a

0 1
  C     -212.268     613.018    -598.031
  O     -211.023     612.888    -597.364
  P     -210.508     611.464    -596.815
  C     -211.142     611.880    -594.334
  O     -210.099     611.731    -595.285
  C     -210.555     612.062    -592.927
  O     -210.048     610.776    -592.472
  C     -209.402     613.071    -592.832
  O     -209.508     613.727    -591.565
  C     -208.174     612.183    -592.891
  O     -207.032     612.820    -592.344
  C     -208.658     610.960    -592.109
  N     -207.872     609.766    -592.400
  C     -206.586     609.693    -591.865
  O     -206.135     610.615    -591.202
  N     -205.839     608.566    -592.097
  C     -206.310     607.627    -592.860
  N     -205.555     606.498    -593.003
  C     -207.622     607.706    -593.534
  C     -208.354     608.791    -593.228
  O     -209.461     610.812    -597.648
  O     -211.859     610.611    -596.651
  H     -206.257     612.228    -592.469
  H     -212.131     610.156    -597.485
  H     -207.950     606.909    -594.188
  H     -209.338     608.910    -593.659
  H     -208.652     611.175    -591.022
  H     -207.955     611.922    -593.935
  H     -209.442     613.822    -593.635
  H     -211.378     612.343    -592.244
  H     -204.751     606.405    -592.399
  H     -211.760     610.980    -594.352
  H     -205.974     605.617    -593.317
  H     -211.784     612.734    -594.603
  P     -208.744     615.133    -591.359
  C     -207.336     614.012    -589.494
  O     -208.089     615.128    -589.890
  O     -209.994     616.140    -591.180
  O     -207.887     615.595    -592.482
  H     -209.717     617.030    -591.437
  H     -206.978     614.186    -588.482
  H     -206.489     613.854    -590.149
  H     -207.969     613.113    -589.497
  H     -212.417     614.040    -598.312
  H     -213.057     612.709    -597.378
  H     -212.269     612.404    -598.907

 3  4  5  6  7  8  9  10  11  12  13  23  27  28  29  30  32 0
 6-311+G(2d,p)
 ****
 34  35 0
 6-311+G(2d,p)
 ****
 1  2  14  15  16  17  18  19  20  21  22  24  25  26 0
 3-21G
 ****
 31  33  36  37  38  39  40  41  42  43  44  45  46 0
 3-21G
 ****


