%nproc=1
%NoSave
%Mem=1900MB
#P OB98/GEN NMR

erre ene a

0 1
  C      -31.706    -676.368     321.961
  O      -32.686    -676.287     320.950
  H      -31.267    -677.371     321.945
  H      -32.165    -676.204     322.937
  H      -30.905    -675.639     321.795
  P      -33.290    -674.851     320.562
  C      -34.876    -674.602     322.583
  O      -33.688    -674.147     321.949
  C      -35.470    -673.495     323.458
  O      -36.845    -673.856     323.787
  C      -34.709    -673.287     324.786
  O      -34.758    -671.894     325.126
  C      -35.562    -674.087     325.748
  O      -35.349    -673.706     327.084
  C      -36.966    -673.787     325.223
  N      -37.947    -674.728     325.738
  C      -38.530    -674.420     326.968
  O      -38.254    -673.412     327.620
  N      -39.400    -675.342     327.472
  C      -39.654    -676.573     326.936
  O      -40.383    -677.399     327.474
  C      -38.972    -676.873     325.668
  C      -38.167    -675.949     325.134
  O      -34.367    -674.851     319.528
  O      -32.012    -673.997     320.111
  H      -34.489    -674.047     327.394
  H      -32.286    -673.242     319.553
  H      -39.840    -675.125     328.355
  H      -39.141    -677.844     325.220
  H      -37.634    -676.142     324.206
  H      -37.273    -672.763     325.483
  H      -35.328    -675.158     325.664
  H      -33.668    -673.629     324.744
  H      -35.508    -672.565     322.877
  H      -34.621    -675.474     323.203
  H      -35.606    -674.910     321.822
  P      -33.462    -670.951     325.009
  C      -32.514    -671.408     327.352
  O      -32.277    -671.498     325.953
  O      -33.754    -669.490     325.181
  O      -32.907    -671.220     323.526
  H      -32.698    -670.369     323.105
  H      -31.670    -671.796     327.882
  H      -33.385    -671.976     327.603
  H      -32.666    -670.384     327.623

 6  7  8  9  10  11  12  13  14  15  16  26  31  32  33  34  35 0
 6-311+G(2d,p)
 ****
 36  37 0
 6-311+G(2d,p)
 ****
 1  2  3  4  5  17  18  19  20  21  22  23  24  25 0
 3-21G
 ****
 27  28  29  30  38  39  40  41  42  43  44  45 0
 3-21G
 ****


