%nproc=1
%NoSave
%Mem=1900MB
#P OB98/GEN NMR

erre ene a

0 1
  C      350.850     569.817    -238.590
  O      350.941     569.654    -237.190
  H      349.912     569.401    -238.959
  H      350.875     570.887    -238.819
  H      351.699     569.330    -239.084
  P      350.891     568.145    -236.635
  C      348.580     568.429    -235.472
  O      349.976     568.213    -235.318
  C      348.085     569.348    -234.360
  O      348.135     568.659    -233.088
  C      348.924     570.609    -234.187
  O      348.571     571.627    -235.109
  C      348.553     571.001    -232.762
  O      347.254     571.612    -232.751
  C      348.510     569.630    -232.060
  N      351.896     570.601    -228.348
  C      350.685     571.141    -228.635
  N      349.841     570.814    -229.632
  C      350.337     569.808    -230.369
  C      351.548     569.151    -230.191
  C      352.359     569.593    -229.120
  N      353.599     569.062    -228.846
  N      351.723     568.186    -231.161
  C      350.627     568.248    -231.898
  N      349.776     569.238    -231.475
  O      352.361     567.906    -236.045
  O      350.480     567.103    -237.618
  H      347.222     572.241    -233.498
  H      352.512     566.959    -235.881
  H      350.370     571.949    -227.982
  H      350.410     567.609    -232.741
  H      347.750     569.584    -231.269
  H      349.252     571.719    -232.331
  H      349.995     570.387    -234.225
  H      347.035     569.592    -234.556
  H      348.059     567.465    -235.408
  H      354.156     569.547    -228.159
  H      354.006     568.418    -229.503
  H      348.383     568.881    -236.444
  P      349.648     572.800    -235.365
  C      348.117     574.841    -234.920
  O      348.818     574.069    -235.882
  O      350.411     572.291    -236.676
  O      350.576     573.041    -234.223
  H      351.345     572.580    -236.674
  H      347.613     575.649    -235.409
  H      348.809     575.233    -234.204
  H      347.400     574.223    -234.421

 6  7  8  9  10  11  12  13  14  15  25  28  32  33  34  35 0
 6-311+G(2d,p)
 ****
 36  39  40 0
 6-311+G(2d,p)
 ****
 1  2  3  4  5  16  17  18  19  20  21  22  23  24 0
 3-21G
 ****
 26  27  29  30  31  37  38  41  42  43  44  45  46  47 0
 3-21G
 ****
 48 0
 3-21G
 ****


