%nproc=1
%NoSave
%Mem=1900MB
#P OB98/GEN NMR

erre ene a

0 1
  C     -237.890    -136.441      66.198
  O     -236.760    -135.795      66.756
  P     -236.810    -135.470      68.329
  C     -238.539    -133.993      69.614
  O     -237.690    -134.143      68.487
  C     -239.478    -132.807      69.397
  O     -240.501    -133.147      68.437
  C     -240.209    -132.350      70.653
  O     -239.375    -131.513      71.432
  C     -241.417    -131.635      70.058
  O     -241.071    -130.298      69.644
  C     -241.747    -132.517      68.847
  N     -246.701    -133.519      68.819
  C     -246.038    -132.321      68.652
  N     -246.806    -131.237      68.398
  N     -244.738    -132.192      68.725
  C     -244.100    -133.355      68.999
  C     -244.645    -134.599      69.199
  C     -246.080    -134.736      69.064
  O     -246.705    -135.791      69.102
  N     -243.683    -135.533      69.476
  C     -242.554    -134.857      69.413
  N     -242.751    -133.535      69.107
  O     -235.319    -134.991      68.647
  O     -237.246    -136.607      69.199
  H     -241.844    -129.884      69.219
  H     -234.797    -135.720      69.034
  H     -247.702    -133.561      68.734
  H     -241.572    -135.280      69.560
  H     -242.105    -131.930      67.993
  H     -242.235    -131.537      70.778
  H     -247.810    -131.255      68.352
  H     -240.545    -133.215      71.237
  H     -246.333    -130.349      68.278
  H     -238.888    -131.983      68.973
  H     -237.925    -133.808      70.502
  H     -239.108    -134.918      69.762
  P     -239.933    -131.036      72.861
  C     -242.119    -129.758      73.423
  O     -240.978    -129.856      72.590
  O     -238.673    -130.294      73.517
  O     -240.425    -132.144      73.731
  H     -238.664    -130.462      74.478
  H     -242.416    -128.709      73.488
  H     -241.921    -130.136      74.430
  H     -242.936    -130.331      72.978
  H     -237.730    -136.599      65.152
  H     -238.756    -135.829      66.338
  H     -238.037    -137.384      66.682

 3  4  5  6  7  8  9  10  11  12  23  26  30  31 0
 6-311+G(2d,p)
 ****
 33  35  36  37  38 0
 6-311+G(2d,p)
 ****
 1  2  13  14  15  16  17  18  19  20  21  22  24  25 0
 3-21G
 ****
 27  28  29  32  34  39  40  41  42  43  44  45  46  47  48  49 0
 3-21G
 ****


