%nproc=1
%NoSave
%Mem=1900MB
#P OB98/GEN NMR

erre ene a

0 1
  C      192.802     143.415     608.696
  O      192.323     142.282     607.997
  H      193.478     143.075     609.488
  H      191.976     143.964     609.155
  H      193.360     144.071     608.021
  P      191.247     142.504     606.831
  C      192.085     140.766     605.102
  O      191.100     141.096     606.078
  C      192.003     139.284     604.736
  O      192.404     138.466     605.854
  C      190.603     138.811     604.361
  O      190.258     139.253     603.058
  C      190.763     137.307     604.514
  O      191.441     136.740     603.385
  C      191.653     137.230     605.784
  N      190.898     137.008     607.011
  C      190.237     135.779     607.116
  O      190.296     134.965     606.195
  N      189.508     135.518     608.257
  C      189.481     136.386     609.220
  N      188.750     136.068     610.320
  C      190.196     137.679     609.165
  C      190.866     137.928     608.044
  O      191.490     143.668     605.921
  O      189.855     142.646     607.612
  H      191.559     135.789     603.586
  H      189.652     143.585     607.778
  H      190.153     138.366     610.004
  H      191.422     138.852     607.922
  H      192.386     136.418     605.687
  H      189.803     136.795     604.604
  H      189.871     139.162     605.095
  H      192.715     139.099     603.920
  H      188.295     135.161     610.322
  H      193.063     140.989     605.542
  H      188.788     136.580     611.189
  H      191.962     141.382     604.207
  P      188.809     139.861     602.735
  C      189.441     141.980     601.415
  O      188.970     140.641     601.337
  O      188.188     140.655     603.832
  O      187.950     138.578     602.310
  H      187.683     138.060     603.114
  H      189.507     142.393     600.430
  H      190.408     141.992     601.872
  H      188.762     142.563     602.001

 6  7  8  9  10  11  12  13  14  15  16  26  30  31  32  33  35 0
 6-311+G(2d,p)
 ****
 37  38 0
 6-311+G(2d,p)
 ****
 1  2  3  4  5  17  18  19  20  21  22  23  24  25 0
 3-21G
 ****
 27  28  29  34  36  39  40  41  42  43  44  45  46 0
 3-21G
 ****


