%nproc=1
%NoSave
%Mem=1900MB
#P OB98/GEN NMR

erre ene a

0 1
  C     1383.332    1075.811    -338.220
  O     1383.003    1074.458    -337.942
  H     1384.015    1075.830    -339.072
  H     1383.818    1076.277    -337.367
  H     1382.423    1076.372    -338.485
  P     1382.093    1074.149    -336.663
  C     1383.528    1072.216    -335.711
  O     1382.295    1072.598    -336.321
  C     1384.009    1070.867    -336.240
  O     1384.625    1071.065    -337.539
  C     1385.042    1070.165    -335.339
  O     1384.896    1068.760    -335.492
  C     1386.346    1070.634    -335.960
  O     1387.435    1069.882    -335.513
  C     1385.984    1070.551    -337.444
  N     1386.894    1071.304    -338.295
  C     1388.098    1070.645    -338.623
  O     1388.327    1069.505    -338.216
  N     1389.014    1071.288    -339.416
  C     1388.774    1072.530    -339.777
  N     1389.728    1073.125    -340.544
  C     1387.558    1073.265    -339.390
  C     1386.683    1072.605    -338.676
  O     1380.669    1074.585    -336.755
  O     1382.854    1074.890    -335.448
  H     1387.271    1068.924    -335.629
  H     1382.379    1075.703    -335.219
  H     1387.433    1074.322    -339.698
  H     1385.733    1073.072    -338.334
  H     1385.964    1069.504    -337.786
  H     1386.549    1071.681    -335.676
  H     1384.956    1070.455    -334.278
  H     1383.127    1070.223    -336.391
  H     1390.566    1072.586    -340.779
  H     1383.357    1072.168    -334.638
  H     1389.678    1074.092    -340.855
  H     1384.301    1072.985    -335.907
  P     1384.304    1067.805    -334.343
  C     1386.268    1066.169    -334.538
  O     1384.860    1066.320    -334.556
  O     1382.826    1067.880    -334.191
  O     1385.030    1068.295    -333.001
  H     1384.425    1068.137    -332.247
  H     1386.518    1065.140    -334.690
  H     1386.649    1066.493    -333.592
  H     1386.700    1066.760    -335.318

 6  7  8  9  10  11  12  13  14  15  16  26  30  31  32  33  35 0
 6-311+G(2d,p)
 ****
 37  38 0
 6-311+G(2d,p)
 ****
 1  2  3  4  5  17  18  19  20  21  22  23  24  25 0
 3-21G
 ****
 27  28  29  34  36  39  40  41  42  43  44  45  46 0
 3-21G
 ****


