%nproc=1
%NoSave
%Mem=1900MB
#P OB98/GEN NMR

erre ene a

0 1
  C      138.479     125.200     -97.654
  O      138.971     125.706     -96.429
  H      137.401     125.383     -97.700
  H      138.650     124.121     -97.714
  H      138.955     125.700     -98.501
  P      140.554     125.702     -96.173
  C      142.354     123.856     -96.082
  O      140.981     124.181     -95.906
  C      142.697     122.604     -95.276
  O      142.691     122.902     -93.863
  C      141.704     121.463     -95.462
  O      141.903     120.808     -96.700
  C      142.012     120.615     -94.237
  O      143.171     119.797     -94.455
  C      142.290     121.698     -93.170
  N      141.143     121.947     -92.299
  C      140.929     121.024     -91.276
  O      141.630     120.026     -91.109
  N      139.857     121.275     -90.463
  C      138.933     122.265     -90.637
  O      137.937     122.392     -89.932
  C      139.194     123.194     -91.745
  C      140.271     122.995     -92.513
  O      141.048     126.683     -95.164
  O      141.170     125.997     -97.624
  H      142.910     119.120     -95.107
  H      141.487     126.919     -97.659
  H      139.677     120.613     -89.726
  H      138.492     124.001     -91.907
  H      140.476     123.666     -93.338
  H      143.141     121.402     -92.542
  H      141.189     119.946     -93.981
  H      140.678     121.839     -95.384
  H      143.715     122.287     -95.549
  H      142.964     124.695     -95.726
  H      142.550     123.699     -97.147
  P      140.647     120.249     -97.518
  C      138.780     118.577     -96.939
  O      140.164     118.893     -96.807
  O      140.838     120.152     -98.996
  O      139.474     121.279     -97.165
  H      139.159     121.706     -97.985
  H      138.574     117.659     -96.429
  H      138.535     118.472     -97.975
  H      138.192     119.362     -96.511

 6  7  8  9  10  11  12  13  14  15  16  26  31  32  33  34  35 0
 6-311+G(2d,p)
 ****
 36  37 0
 6-311+G(2d,p)
 ****
 1  2  3  4  5  17  18  19  20  21  22  23  24  25 0
 3-21G
 ****
 27  28  29  30  38  39  40  41  42  43  44  45 0
 3-21G
 ****


