%nproc=1
%NoSave
%Mem=1900MB
#P OB98/GEN NMR

erre ene a

0 1
  C      146.673     -92.493     -52.814
  O      145.530     -93.303     -52.632
  H      147.556     -93.063     -52.509
  H      146.605     -91.598     -52.191
  H      146.786     -92.208     -53.863
  P      144.115     -92.767     -53.159
  C      142.759     -90.600     -52.827
  O      143.757     -91.465     -52.296
  C      141.978     -89.949     -51.689
  O      141.050     -90.898     -51.120
  C      142.851     -89.489     -50.528
  O      143.553     -88.302     -50.842
  C      141.814     -89.356     -49.427
  O      141.120     -88.106     -49.517
  C      140.862     -90.532     -49.734
  N      141.096     -91.674     -48.850
  C      140.648     -91.538     -47.541
  O      140.075     -90.536     -47.118
  N      140.938     -92.581     -46.702
  C      141.733     -93.649     -47.006
  O      142.169     -94.426     -46.162
  C      142.125     -93.770     -48.419
  C      141.804     -92.786     -49.261
  O      143.030     -93.788     -53.247
  O      144.458     -92.156     -54.600
  H      144.179     -92.787     -55.291
  H      140.421     -88.139     -48.832
  H      140.653     -92.471     -45.738
  H      142.696     -94.642     -48.715
  H      142.111     -92.835     -50.301
  H      139.817     -90.217     -49.628
  H      142.271     -89.411     -48.437
  H      143.556     -90.284     -50.258
  H      141.402     -89.111     -52.100
  H      142.076     -91.191     -53.446
  H      143.242     -89.842     -53.453
  P      145.053     -88.089     -50.326
  C      146.249     -87.140     -48.258
  O      144.995     -87.372     -48.892
  O      145.979     -87.451     -51.307
  O      145.550     -89.568     -49.959
  H      146.416     -89.723     -50.384
  H      146.089     -86.660     -47.315
  H      146.852     -86.512     -48.880
  H      146.748     -88.074     -48.103

 6  7  8  9  10  11  12  13  14  15  16  27  31  32  33  34  35 0
 6-311+G(2d,p)
 ****
 36  37 0
 6-311+G(2d,p)
 ****
 1  2  3  4  5  17  18  19  20  21  22  23  24  25 0
 3-21G
 ****
 26  28  29  30  38  39  40  41  42  43  44  45 0
 3-21G
 ****


