%nproc=1
%NoSave
%Mem=1900MB
#P OB98/GEN NMR

erre ene a

0 1
  C     1094.416    -249.312     846.710
  O     1095.575    -248.879     846.004
  P     1095.962    -247.322     846.106
  C     1098.364    -247.665     847.104
  O     1097.023    -247.223     847.304
  C     1098.562    -249.026     847.771
  O     1097.678    -250.021     847.182
  C     1099.956    -249.588     847.614
  O     1100.887    -248.927     848.462
  C     1099.729    -251.061     847.953
  O     1099.677    -251.238     849.376
  C     1098.332    -251.307     847.342
  N     1098.376    -252.041     846.081
  C     1098.451    -253.430     846.191
  O     1098.508    -254.019     847.273
  N     1098.495    -254.111     845.009
  C     1098.495    -253.566     843.769
  O     1098.518    -254.237     842.738
  C     1098.454    -252.098     843.719
  C     1098.404    -251.411     844.856
  O     1094.616    -246.704     846.716
  O     1096.391    -246.737     844.800
  H     1094.179    -247.312     847.341
  H     1100.550    -250.966     849.721
  H     1098.540    -255.115     845.065
  H     1098.481    -251.625     842.733
  H     1098.378    -250.324     844.835
  H     1097.709    -251.873     848.041
  H     1100.516    -251.721     847.571
  H     1100.283    -249.505     846.570
  H     1098.305    -248.930     848.831
  H     1099.064    -246.949     847.537
  H     1098.556    -247.720     846.032
  P     1102.011    -248.013     847.742
  C     1102.117    -246.270     849.678
  O     1101.846    -246.535     848.325
  O     1101.417    -247.917     846.255
  O     1103.387    -248.595     847.815
  H     1100.464    -247.742     846.242
  H     1102.286    -245.201     849.800
  H     1103.004    -246.804     850.019
  H     1101.258    -246.565     850.296
  H     1094.276    -250.362     846.557
  H     1093.560    -248.782     846.349
  H     1094.541    -249.118     847.755

 3  4  5  6  7  8  9  10  11  12  13  24  28  29  30  31  32 0
 6-311+G(2d,p)
 ****
 33  34 0
 6-311+G(2d,p)
 ****
 1  2  14  15  16  17  18  19  20  21  22  23  25  26  27 0
 3-21G
 ****
 35  36  37  38  39  40  41  42  43  44  45 0
 3-21G
 ****


