%nproc=1
%NoSave
%Mem=1900MB
#P OB98/GEN NMR

erre ene a

0 1
  C     -195.483    -485.045    -272.604
  O     -195.835    -486.315    -272.040
  P     -194.956    -487.570    -272.530
  C     -196.765    -489.196    -273.461
  O     -195.727    -488.267    -273.760
  C     -197.469    -489.641    -274.746
  O     -198.203    -488.580    -275.376
  C     -196.504    -490.166    -275.809
  O     -196.137    -491.497    -275.502
  C     -197.350    -490.056    -277.073
  O     -198.219    -491.204    -277.225
  C     -198.189    -488.793    -276.809
  N     -198.828    -485.661    -280.754
  C     -199.419    -486.882    -280.489
  N     -200.335    -487.315    -281.372
  N     -199.148    -487.606    -279.431
  C     -198.216    -487.054    -278.624
  C     -197.572    -485.835    -278.773
  C     -197.882    -485.049    -279.945
  O     -197.405    -483.957    -280.216
  N     -196.729    -485.581    -277.709
  C     -196.779    -486.688    -276.992
  N     -197.711    -487.590    -277.469
  O     -195.115    -488.620    -271.334
  O     -193.524    -487.233    -272.787
  H     -198.835    -491.232    -276.471
  H     -194.271    -488.705    -270.849
  H     -199.062    -485.157    -281.587
  H     -196.179    -486.885    -276.117
  H     -199.230    -488.922    -277.136
  H     -196.737    -490.010    -277.968
  H     -200.602    -486.809    -282.215
  H     -195.635    -489.512    -275.882
  H     -200.795    -488.206    -281.192
  H     -198.187    -490.440    -274.467
  H     -197.490    -488.734    -272.784
  H     -196.336    -490.043    -272.928
  P     -194.772    -491.735    -274.684
  C     -193.326    -491.597    -276.833
  O     -193.580    -491.085    -275.544
  O     -194.532    -493.307    -274.805
  O     -194.833    -491.305    -273.256
  H     -194.270    -493.669    -273.944
  H     -192.909    -490.789    -277.447
  H     -194.230    -491.975    -277.306
  H     -192.591    -492.407    -276.768
  H     -196.129    -484.288    -272.210
  H     -195.589    -485.086    -273.668
  H     -194.468    -484.813    -272.355

 3  4  5  6  7  8  9  10  11  12  23  26  30  31 0
 6-311+G(2d,p)
 ****
 33  35  36  37  38 0
 6-311+G(2d,p)
 ****
 1  2  13  14  15  16  17  18  19  20  21  22  24  25 0
 3-21G
 ****
 27  28  29  32  34  39  40  41  42  43  44  45  46  47  48  49 0
 3-21G
 ****


