%nproc=1
%NoSave
%Mem=1900MB
#P OB98/GEN NMR

erre ene a

0 1
  C     2259.288     -47.410    1319.597
  O     2259.113     -47.311    1318.196
  H     2260.209     -47.967    1319.787
  H     2258.454     -47.951    1320.048
  H     2259.380     -46.419    1320.033
  P     2257.784     -46.569    1317.687
  C     2258.609     -44.272    1316.873
  O     2258.060     -45.013    1317.955
  C     2258.554     -42.780    1317.178
  O     2257.184     -42.419    1317.521
  C     2259.441     -42.332    1318.344
  O     2259.962     -41.010    1318.078
  C     2258.479     -42.215    1319.503
  O     2258.942     -41.368    1320.543
  C     2257.213     -41.748    1318.787
  N     2252.778     -39.852    1320.466
  C     2253.707     -39.393    1319.582
  N     2254.846     -39.971    1319.181
  C     2254.973     -41.200    1319.724
  C     2254.113     -41.813    1320.620
  C     2252.975     -41.089    1321.011
  N     2252.060     -41.538    1321.921
  N     2254.628     -43.062    1320.992
  C     2255.768     -43.176    1320.312
  N     2256.020     -42.066    1319.555
  O     2256.497     -47.085    1318.252
  O     2257.921     -46.673    1316.102
  H     2259.675     -41.849    1320.998
  H     2258.817     -46.442    1315.800
  H     2253.510     -38.403    1319.168
  H     2256.416     -44.033    1320.352
  H     2257.207     -40.665    1318.618
  H     2258.323     -43.221    1319.947
  H     2260.262     -43.041    1318.559
  H     2258.805     -42.225    1316.245
  H     2258.081     -44.484    1315.950
  H     2251.271     -40.939    1322.131
  H     2252.173     -42.454    1322.341
  H     2259.662     -44.586    1316.741
  P     2261.487     -40.919    1317.550
  C     2260.858     -40.538    1315.066
  O     2261.537     -41.378    1316.002
  O     2262.519     -41.547    1318.399
  O     2261.710     -39.329    1317.414
  H     2262.599     -39.108    1317.775
  H     2260.962     -40.944    1314.081
  H     2261.283     -39.556    1315.094
  H     2259.820     -40.485    1315.322

 6  7  8  9  10  11  12  13  14  15  25  28  32  33  34  35 0
 6-311+G(2d,p)
 ****
 36  39  40 0
 6-311+G(2d,p)
 ****
 1  2  3  4  5  16  17  18  19  20  21  22  23  24 0
 3-21G
 ****
 26  27  29  30  31  37  38  41  42  43  44  45  46  47 0
 3-21G
 ****
 48 0
 3-21G
 ****


