%nproc=1
%NoSave
%Mem=1900MB
#P OB98/GEN NMR

erre ene a

0 1
  C       51.490    -249.522      36.005
  O       50.271    -249.097      36.613
  P       49.183    -250.200      37.033
  C       48.736    -251.127      34.678
  O       49.239    -251.408      35.976
  C       48.891    -252.315      33.719
  O       48.492    -251.948      32.371
  C       50.319    -252.874      33.634
  O       50.205    -254.292      33.465
  C       50.845    -252.225      32.369
  O       51.984    -252.893      31.848
  C       49.589    -252.266      31.494
  N       49.662    -251.352      30.367
  C       50.177    -251.849      29.170
  O       50.644    -252.989      29.128
  N       50.179    -251.033      28.064
  C       49.839    -249.789      28.190
  N       49.835    -249.017      27.069
  C       49.461    -249.181      29.481
  C       49.370    -250.017      30.509
  O       47.815    -249.674      37.317
  O       49.831    -250.854      38.347
  H       52.360    -252.358      31.117
  H       49.112    -251.096      38.964
  H       49.265    -248.121      29.550
  H       49.094    -249.672      31.494
  H       49.417    -253.281      31.109
  H       51.131    -251.186      32.580
  H       50.922    -252.666      34.522
  H       48.210    -253.108      34.055
  H       50.120    -249.441      26.195
  H       49.269    -250.264      34.267
  H       49.532    -248.051      27.074
  H       47.686    -250.823      34.761
  P       50.039    -255.217      34.767
  C       52.425    -256.238      34.886
  O       51.478    -255.361      35.456
  O       49.838    -256.670      34.110
  O       48.885    -254.897      35.660
  H       49.352    -257.236      34.738
  H       53.411    -256.004      35.299
  H       52.470    -256.126      33.799
  H       52.174    -257.272      35.139
  H       52.098    -248.668      35.790
  H       51.273    -250.043      35.096
  H       52.014    -250.174      36.673

 3  4  5  6  7  8  9  10  11  12  13  23  27  28  29  30  32 0
 6-311+G(2d,p)
 ****
 34  35 0
 6-311+G(2d,p)
 ****
 1  2  14  15  16  17  18  19  20  21  22  24  25  26 0
 3-21G
 ****
 31  33  36  37  38  39  40  41  42  43  44  45  46 0
 3-21G
 ****


