%nproc=1
%NoSave
%Mem=1900MB
#P OB98/GEN NMR

erre ene a

0 1
  C      -82.402     -67.896     190.320
  O      -83.520     -68.698     190.642
  H      -82.713     -67.129     189.606
  H      -81.633     -68.516     189.854
  H      -81.999     -67.409     191.212
  P      -83.408     -69.623     191.947
  C      -84.868     -67.919     193.252
  O      -83.660     -68.665     193.212
  C      -85.676     -68.278     194.499
  O      -84.867     -67.981     195.678
  C      -86.999     -67.506     194.634
  O      -87.986     -68.376     195.203
  C      -86.662     -66.438     195.658
  O      -87.816     -65.947     196.330
  C      -85.699     -67.204     196.559
  N      -84.912     -65.831     201.321
  C      -85.613     -66.899     200.800
  N      -86.261     -67.697     201.676
  N      -85.681     -67.163     199.521
  C      -84.973     -66.297     198.756
  C      -84.244     -65.202     199.148
  C      -84.190     -64.910     200.565
  O      -83.605     -63.967     201.086
  N      -83.724     -64.543     198.061
  C      -84.158     -65.229     197.016
  N      -84.920     -66.301     197.388
  O      -81.839     -69.937     192.020
  O      -84.224     -70.871     191.918
  H      -88.425     -65.576     195.659
  H      -81.652     -70.790     191.584
  H      -84.906     -65.662     202.312
  H      -83.966     -64.981     195.983
  H      -86.217     -67.894     197.239
  H      -86.159     -65.595     195.170
  H      -86.230     -67.577     202.676
  H      -87.371     -67.092     193.691
  H      -86.746     -68.507     201.310
  H      -85.857     -69.359     194.500
  H      -85.463     -68.151     192.363
  H      -84.631     -66.850     193.246
  P      -89.429     -68.436     194.507
  C      -88.897     -70.226     192.694
  O      -89.241     -68.877     192.977
  O      -89.840     -66.893     194.396
  O      -90.440     -69.217     195.278
  H      -90.805     -66.799     194.511
  H      -88.809     -70.357     191.636
  H      -89.659     -70.875     193.072
  H      -87.964     -70.462     193.161

 6  7  8  9  10  11  12  13  14  15  26  29  33  34 0
 6-311+G(2d,p)
 ****
 36  38  39  40  41 0
 6-311+G(2d,p)
 ****
 1  2  3  4  5  16  17  18  19  20  21  22  23  24  25 0
 3-21G
 ****
 27  28  30  31  32  35  37  42  43  44  45  46  47 0
 3-21G
 ****
 48  49 0
 3-21G
 ****


