%nproc=1
%NoSave
%Mem=1900MB
#P OB98/GEN NMR

erre ene a

0 1
  C     -169.530    -120.823    -320.869
  O     -170.314    -120.108    -319.934
  P     -170.132    -118.530    -319.750
  C     -172.614    -118.020    -320.131
  O     -171.289    -117.806    -320.601
  C     -173.646    -117.519    -321.137
  O     -173.524    -116.075    -321.264
  C     -173.509    -118.113    -322.548
  O     -174.836    -118.219    -323.082
  C     -172.751    -117.030    -323.297
  O     -172.904    -117.119    -324.708
  C     -173.363    -115.783    -322.669
  N     -171.389    -112.497    -326.048
  C     -172.142    -113.605    -326.210
  N     -172.607    -114.444    -325.259
  C     -172.224    -114.037    -324.039
  C     -171.430    -112.945    -323.721
  C     -171.016    -112.141    -324.797
  N     -170.274    -110.986    -324.648
  N     -171.206    -112.893    -322.358
  C     -171.853    -113.931    -321.867
  N     -172.533    -114.611    -322.837
  O     -168.756    -118.014    -320.006
  O     -170.578    -118.263    -318.236
  H     -172.238    -117.747    -325.050
  H     -169.790    -118.087    -317.687
  H     -172.414    -113.851    -327.233
  H     -171.858    -114.231    -320.830
  H     -174.353    -115.556    -323.083
  H     -171.680    -117.107    -323.067
  H     -173.003    -119.080    -322.574
  H     -174.647    -117.720    -320.733
  H     -172.732    -117.474    -319.190
  H     -170.148    -110.416    -325.470
  H     -170.212    -110.557    -323.727
  H     -172.769    -119.087    -319.934
  P     -175.375    -119.634    -323.613
  C     -177.281    -120.189    -322.004
  O     -175.923    -120.423    -322.335
  O     -174.418    -120.395    -324.473
  O     -176.709    -119.250    -324.411
  H     -176.958    -119.985    -325.001
  H     -177.364    -119.250    -321.448
  H     -177.639    -121.008    -321.372
  H     -177.907    -120.133    -322.901
  H     -169.799    -121.858    -320.843
  H     -168.495    -120.717    -320.621
  H     -169.703    -120.434    -321.851

 3  4  5  6  7  8  9  10  11  12  22  25  29  30  31  32 0
 6-311+G(2d,p)
 ****
 33  36  37 0
 6-311+G(2d,p)
 ****
 1  2  13  14  15  16  17  18  19  20  21  23  24  26 0
 3-21G
 ****
 27  28  34  35  38  39  40  41  42  43  44  45  46  47  48 0
 3-21G
 ****


