%nproc=1
%NoSave
%Mem=1900MB
#P OB98/GEN NMR

erre ene a

0 1
  C     -120.759     123.986     -25.710
  O     -119.642     124.836     -25.510
  P     -119.930     126.312     -24.941
  C     -120.098     125.309     -22.543
  O     -120.710     126.117     -23.546
  C     -119.893     126.097     -21.245
  O     -121.144     126.732     -20.879
  C     -119.434     125.243     -20.063
  O     -118.511     126.018     -19.291
  C     -120.702     125.032     -19.256
  O     -120.420     124.762     -17.884
  C     -121.438     126.361     -19.515
  N     -122.876     126.243     -19.289
  C     -123.284     125.776     -18.032
  O     -122.445     125.406     -17.212
  N     -124.630     125.685     -17.762
  C     -125.489     125.941     -18.699
  N     -126.811     125.845     -18.383
  C     -125.099     126.323     -20.071
  C     -123.794     126.475     -20.288
  O     -121.065     126.862     -25.924
  O     -118.735     127.205     -24.898
  H     -119.999     125.561     -17.494
  H     -120.991     127.825     -26.040
  H     -125.857     126.490     -20.827
  H     -123.415     126.777     -21.260
  H     -121.045     127.153     -18.863
  H     -121.274     124.194     -19.668
  H     -118.954     124.310     -20.373
  H     -119.165     126.896     -21.443
  H     -127.050     125.565     -17.437
  H     -119.116     124.984     -22.901
  H     -127.552     126.022     -19.049
  H     -120.708     124.424     -22.366
  P     -117.634     125.258     -18.185
  C     -115.382     125.345     -19.424
  O     -116.466     124.532     -19.016
  O     -118.588     124.017     -17.818
  O     -117.229     126.008     -16.960
  H     -118.185     123.499     -17.097
  H     -114.608     124.703     -19.856
  H     -114.964     125.881     -18.572
  H     -115.711     126.051     -20.192
  H     -120.426     123.042     -26.089
  H     -121.428     124.436     -26.413
  H     -121.266     123.838     -24.779

 3  4  5  6  7  8  9  10  11  12  13  21  23  27  28  29  30  32 0
 6-311+G(2d,p)
 ****
 34  35 0
 6-311+G(2d,p)
 ****
 1  2  14  15  16  17  18  19  20  22  24  25  26 0
 3-21G
 ****
 31  33  36  37  38  39  40  41  42  43  44  45  46 0
 3-21G
 ****


