%nproc=1
%NoSave
%Mem=1900MB
#P OB98/GEN NMR

erre ene a

0 1
  C     -217.114    -548.777    -501.392
  O     -218.133    -548.173    -500.615
  H     -216.155    -548.647    -500.881
  H     -217.057    -548.306    -502.376
  H     -217.312    -549.848    -501.506
  P     -219.605    -548.168    -501.256
  C     -219.620    -550.778    -501.214
  O     -219.698    -549.594    -501.996
  C     -221.017    -551.359    -501.023
  O     -221.639    -551.630    -502.302
  C     -221.042    -552.695    -500.272
  O     -220.906    -552.531    -498.862
  C     -222.423    -553.194    -500.654
  O     -223.428    -552.488    -499.898
  C     -222.479    -552.807    -502.158
  N     -222.023    -553.886    -503.039
  C     -223.013    -554.705    -503.597
  O     -224.203    -554.520    -503.329
  N     -222.630    -555.740    -504.414
  C     -221.372    -555.931    -504.668
  N     -221.048    -556.981    -505.477
  C     -220.304    -555.082    -504.123
  C     -220.691    -554.095    -503.327
  O     -219.483    -547.150    -502.483
  O     -220.729    -547.869    -500.313
  H     -223.203    -551.545    -499.945
  H     -220.314    -547.166    -503.024
  H     -219.261    -555.293    -504.353
  H     -219.955    -553.430    -502.883
  H     -223.499    -552.522    -502.445
  H     -222.568    -554.260    -500.452
  H     -220.298    -553.388    -500.662
  H     -221.633    -550.604    -500.515
  H     -221.803    -557.586    -505.793
  H     -219.176    -550.532    -500.245
  H     -220.097    -557.318    -505.583
  H     -218.983    -551.513    -501.716
  P     -220.305    -553.770    -498.033
  C     -217.910    -553.064    -498.787
  O     -218.867    -554.108    -498.677
  O     -221.214    -554.997    -498.495
  O     -220.312    -553.592    -496.541
  H     -221.409    -555.596    -497.750
  H     -217.015    -553.446    -499.231
  H     -217.689    -552.679    -497.814
  H     -218.306    -552.281    -499.399

 6  7  8  9  10  11  12  13  14  15  16  26  30  31  32  33  35 0
 6-311+G(2d,p)
 ****
 37  38 0
 6-311+G(2d,p)
 ****
 1  2  3  4  5  17  18  19  20  21  22  23  24  25 0
 3-21G
 ****
 27  28  29  34  36  39  40  41  42  43  44  45  46 0
 3-21G
 ****


