%nproc=1
%NoSave
%Mem=1900MB
#P OB98/GEN NMR

erre ene a

0 1
  C        2.954     198.980    -575.062
  O        2.999     198.707    -576.443
  P        2.882     197.198    -576.980
  C        0.586     197.803    -577.978
  O        1.314     196.900    -577.147
  C        0.215     197.119    -579.293
  O       -0.560     195.915    -579.051
  C       -0.671     197.959    -580.197
  O       -0.115     199.138    -580.742
  C       -1.174     196.912    -581.180
  O       -0.210     196.649    -582.198
  C       -1.337     195.676    -580.254
  N       -2.740     195.408    -579.948
  C       -3.569     195.183    -581.042
  O       -3.178     195.204    -582.208
  N       -4.889     194.961    -580.752
  C       -5.452     194.993    -579.508
  O       -6.657     194.830    -579.330
  C       -4.532     195.252    -578.396
  C       -3.235     195.443    -578.658
  O        3.628     196.185    -576.183
  O        3.370     197.315    -578.503
  H       -0.221     197.402    -582.817
  H        2.837     197.914    -579.056
  H       -5.510     194.812    -581.534
  H       -4.947     195.267    -577.399
  H       -2.538     195.637    -577.856
  H       -0.912     194.785    -580.738
  H       -2.092     197.230    -581.684
  H       -1.543     198.292    -579.612
  H        1.138     196.817    -579.797
  H        1.212     198.672    -578.192
  H       -0.304     198.154    -577.446
  P       -0.978     200.442    -581.093
  C        0.743     202.101    -580.082
  O       -0.579     201.603    -580.061
  O       -2.432     200.231    -581.365
  O       -0.262     200.945    -582.443
  H       -0.925     201.384    -583.007
  H        0.849     202.847    -579.289
  H        0.957     202.577    -581.044
  H        1.457     201.291    -579.897
  H        3.047     200.034    -574.904
  H        3.759     198.473    -574.572
  H        2.022     198.640    -574.661

 3  4  5  6  7  8  9  10  11  12  13  23  28  29  30  31  32 0
 6-311+G(2d,p)
 ****
 33  34 0
 6-311+G(2d,p)
 ****
 1  2  14  15  16  17  18  19  20  21  22  24  25  26  27 0
 3-21G
 ****
 35  36  37  38  39  40  41  42  43  44  45 0
 3-21G
 ****


