%nproc=1
%NoSave
%Mem=1900MB
#P OB98/GEN NMR

erre ene a

0 1
  C      136.669     210.173      14.513
  O      136.218     208.921      14.988
  H      136.722     210.170      13.421
  H      135.962     210.944      14.831
  H      137.653     210.401      14.933
  P      137.069     207.639      14.533
  C      137.809     205.446      15.698
  O      136.925     206.557      15.710
  C      137.613     204.605      16.953
  O      137.838     205.406      18.131
  C      136.213     204.027      17.121
  O      136.012     202.875      16.313
  C      136.231     203.675      18.603
  O      136.913     202.422      18.795
  C      137.057     204.821      19.206
  N      135.638     207.009      23.628
  C      136.468     205.976      23.359
  N      136.788     205.442      22.164
  C      136.167     206.095      21.168
  C      135.296     207.163      21.288
  C      135.027     207.621      22.589
  N      134.166     208.664      22.853
  N      134.865     207.582      20.048
  C      135.464     206.782      19.191
  N      136.258     205.860      19.821
  O      138.588     208.132      14.669
  O      136.779     207.135      13.159
  H      137.028     202.312      19.758
  H      139.117     207.727      13.955
  H      136.942     205.517      24.224
  H      135.358     206.836      18.115
  H      137.771     204.452      19.952
  H      135.232     203.573      19.032
  H      135.445     204.785      16.940
  H      138.365     203.805      16.944
  H      138.843     205.803      15.663
  H      134.168     209.070      23.772
  H      133.720     209.123      22.065
  H      137.610     204.847      14.802
  P      134.513     202.571      15.820
  C      133.647     200.881      14.053
  O      134.670     201.798      14.423
  O      133.977     204.014      15.384
  O      133.630     201.930      16.834
  H      133.002     204.037      15.445
  H      133.885     200.445      13.105
  H      132.713     201.398      13.983
  H      133.574     200.111      14.792

 6  7  8  9  10  11  12  13  14  15  25  28  32  33  34  35 0
 6-311+G(2d,p)
 ****
 36  39  40 0
 6-311+G(2d,p)
 ****
 1  2  3  4  5  16  17  18  19  20  21  22  23  24 0
 3-21G
 ****
 26  27  29  30  31  37  38  41  42  43  44  45  46  47  48 0
 3-21G
 ****


