%nproc=1
%NoSave
%Mem=1900MB
#P OB98/GEN NMR

erre ene a

0 1
  C      105.461     -60.092     -44.465
  O      106.781     -59.708     -44.120
  P      107.050     -59.273     -42.596
  C      107.908     -61.670     -42.069
  O      107.007     -60.622     -41.726
  C      108.324     -62.473     -40.836
  O      107.138     -63.033     -40.219
  C      109.289     -63.623     -41.134
  O      110.210     -63.715     -40.046
  C      108.394     -64.848     -41.127
  O      109.127     -66.035     -40.834
  C      107.352     -64.451     -40.067
  N      106.108     -65.199     -40.212
  C      106.126     -66.543     -39.816
  O      107.181     -67.060     -39.449
  N      104.968     -67.274     -39.902
  C      103.912     -66.745     -40.434
  N      102.787     -67.509     -40.492
  C      103.885     -65.370     -40.974
  C      104.996     -64.656     -40.812
  O      105.693     -58.530     -42.191
  O      108.250     -58.408     -42.399
  H      109.823     -66.144     -41.520
  H      105.864     -57.817     -41.548
  H      102.988     -64.988     -41.442
  H      105.061     -63.633     -41.155
  H      107.747     -64.623     -39.057
  H      107.917     -64.968     -42.106
  H      109.835     -63.484     -42.071
  H      108.769     -61.781     -40.111
  H      102.836     -68.452     -40.128
  H      108.807     -61.233     -42.511
  H      101.919     -67.179     -40.890
  H      107.441     -62.318     -42.815
  P      111.695     -64.224     -40.370
  C      112.826     -62.013     -39.716
  O      112.508     -62.900     -40.771
  O      111.488     -64.918     -41.802
  O      112.350     -65.157     -39.409
  H      112.322     -65.333     -42.088
  H      113.492     -61.235     -40.103
  H      113.337     -62.544     -38.910
  H      111.915     -61.540     -39.340
  H      105.425     -60.354     -45.502
  H      104.793     -59.277     -44.280
  H      105.168     -60.934     -43.874

 3  4  5  6  7  8  9  10  11  12  13  21  23  27  28  29  30  32 0
 6-311+G(2d,p)
 ****
 34  35 0
 6-311+G(2d,p)
 ****
 1  2  14  15  16  17  18  19  20  22  24  25  26 0
 3-21G
 ****
 31  33  36  37  38  39  40  41  42  43  44  45  46 0
 3-21G
 ****


