%nproc=1
%NoSave
%Mem=1900MB
#P OB98/GEN NMR

erre ene a

0 1
  C       14.947    -891.344    -376.002
  O       13.586    -891.454    -376.372
  H       15.066    -891.744    -374.990
  H       15.256    -890.284    -376.003
  H       15.579    -891.914    -376.685
  P       13.203    -890.934    -377.838
  C       12.032    -893.184    -378.453
  O       13.065    -892.244    -378.751
  C       11.984    -894.284    -379.522
  O       11.368    -893.744    -380.725
  C       13.373    -894.814    -379.934
  O       13.219    -896.184    -380.344
  C       13.687    -893.944    -381.151
  O       14.768    -894.474    -381.882
  C       12.316    -893.924    -381.813
  N       12.935    -892.674    -386.728
  C       13.109    -893.844    -386.067
  N       12.918    -894.104    -384.764
  C       12.463    -893.004    -384.113
  C       12.205    -891.764    -384.662
  C       12.469    -891.604    -386.034
  N       12.285    -890.424    -386.704
  N       11.754    -890.884    -383.690
  C       11.722    -891.604    -382.583
  N       12.160    -892.884    -382.795
  O       14.566    -890.264    -378.358
  O       12.046    -890.004    -377.909
  H       15.025    -893.844    -382.602
  H       14.536    -889.304    -378.194
  H       13.475    -894.674    -386.665
  H       11.411    -891.234    -381.617
  H       12.082    -894.894    -382.288
  H       13.982    -892.934    -380.829
  H       14.127    -894.754    -379.135
  H       11.335    -895.094    -379.182
  H       11.081    -892.664    -378.422
  H       12.234    -893.634    -377.467
  H       12.515    -890.384    -387.691
  H       11.969    -889.604    -386.204
  P       13.500    -897.364    -379.293
  C       11.694    -899.224    -379.644
  O       12.105    -898.064    -378.931
  O       13.811    -896.534    -377.952
  O       14.631    -898.284    -379.629
  H       14.397    -897.074    -377.376
  H       10.746    -899.554    -379.273
  H       12.419    -900.000    -379.511
  H       11.608    -898.991    -380.685

 6  7  8  9  10  11  12  13  14  15  25  28  32  33  34  35 0
 6-311+G(2d,p)
 ****
 36  37  40 0
 6-311+G(2d,p)
 ****
 1  2  3  4  5  16  17  18  19  20  21  22  23  24 0
 3-21G
 ****
 26  27  29  30  31  38  39 41  42  43  44  45  46  47  48 0
 3-21G
 ****


