%nproc=1
%NoSave
%Mem=1900MB
#P OB98/GEN NMR

erre ene a

0 1
  C       42.886    -261.339    -306.303
  O       42.814    -261.099    -304.894
  P       41.358    -260.856    -304.261
  C       41.652    -258.387    -303.455
  O       41.558    -259.757    -303.108
  C       42.528    -257.628    -302.450
  O       42.185    -258.038    -301.091
  C       44.035    -257.840    -302.635
  O       44.671    -256.587    -302.342
  C       44.370    -258.864    -301.567
  O       45.748    -258.846    -301.224
  C       43.417    -258.428    -300.449
  N       43.196    -259.476    -299.456
  C       44.126    -259.574    -298.428
  O       45.142    -258.882    -298.375
  N       43.875    -260.531    -297.482
  C       42.846    -261.430    -297.508
  O       42.668    -262.270    -296.633
  C       41.961    -261.352    -298.678
  C       42.175    -260.392    -299.583
  O       41.126    -262.225    -303.470
  O       40.322    -260.531    -305.286
  H       41.934    -262.580    -303.062
  H       46.002    -257.936    -300.965
  H       44.519    -260.599    -296.711
  H       41.170    -262.086    -298.764
  H       41.555    -260.322    -300.466
  H       43.811    -257.542    -299.936
  H       44.114    -259.870    -301.921
  H       44.299    -258.162    -303.647
  H       42.291    -256.560    -302.535
  H       40.654    -257.936    -303.462
  H       42.050    -258.298    -304.473
  P       45.273    -255.734    -303.568
  C       47.604    -255.159    -302.524
  O       46.339    -254.710    -302.949
  O       44.017    -254.793    -303.897
  O       45.716    -256.541    -304.743
  H       43.626    -254.386    -303.104
  H       48.250    -254.289    -302.363
  H       48.070    -255.801    -303.276
  H       47.509    -255.705    -301.581
  H       43.907    -261.483    -306.589
  H       42.484    -260.498    -306.829
  H       42.321    -262.215    -306.545

 3  4  5  6  7  8  9  10  11  12  13  24  28  29  30  31  32 0
 6-311+G(2d,p)
 ****
 33  34 0
 6-311+G(2d,p)
 ****
 1  2  14  15  16  17  18  19  20  21  22  23  25  26  27 0
 3-21G
 ****
 35  36  37  38  39  40  41  42  43  44  45 0
 3-21G
 ****


