%nproc=1
%NoSave
%Mem=1900MB
#P OB98/GEN NMR

erre ene a

0 1
  C       44.315    -110.918     442.111
  O       45.078    -111.451     441.047
  H       43.703    -111.719     442.539
  H       43.653    -110.132     441.738
  H       44.970    -110.518     442.889
  P       46.173    -110.487     440.387
  C       48.239    -111.549     441.611
  O       47.414    -110.409     441.406
  C       49.708    -111.126     441.663
  O       50.163    -110.660     440.376
  C       49.977    -109.951     442.590
  O       49.866    -110.296     443.954
  C       51.388    -109.578     442.157
  O       52.356    -110.459     442.737
  C       51.300    -109.791     440.625
  N       51.189    -108.535     439.895
  C       52.396    -107.877     439.622
  O       53.465    -108.370     439.987
  N       52.357    -106.670     438.973
  C       51.216    -106.173     438.602
  N       51.246    -104.967     437.973
  C       49.926    -106.843     438.845
  C       49.984    -108.006     439.495
  O       45.503    -109.042     440.537
  O       46.577    -110.841     438.995
  H       52.142    -110.518     443.689
  H       45.230    -108.831     441.445
  H       49.001    -106.397     438.510
  H       49.082    -108.562     439.712
  H       52.189    -110.320     440.258
  H       51.656    -108.565     442.463
  H       49.315    -109.112     442.341
  H       50.304    -112.006     441.942
  H       52.150    -104.528     437.842
  H       48.081    -112.293     440.825
  H       50.422    -104.471     437.668
  H       47.945    -112.005     442.561
  P       49.718    -109.157     445.073
  C       47.207    -108.912     444.570
  O       48.468    -108.253     444.631
  O       50.966    -108.389     445.366
  O       49.134    -109.954     446.331
  H       48.276    -110.389     446.176
  H       46.454    -108.215     444.266
  H       46.962    -109.303     445.535
  H       47.257    -109.713     443.863

 6  7  8  9  10  11  12  13  14  15  16  26  30  31  32  33  35 0
 6-311+G(2d,p)
 ****
 37  38 0
 6-311+G(2d,p)
 ****
 1  2  3  4  5  17  18  19  20  21  22  23  24  25 0
 3-21G
 ****
 27  28  29  34  36  39  40  41  42  43  44  45  46 0
 3-21G
 ****


