%nproc=1
%NoSave
%Mem=1900MB
#P OB98/GEN NMR

erre ene a

0 1
  C     -390.289    -133.162    -264.079
  O     -391.149    -132.865    -262.995
  H     -389.259    -133.184    -263.714
  H     -390.373    -132.388    -264.848
  H     -390.538    -134.139    -264.499
  P     -392.718    -132.809    -263.322
  C     -394.190    -131.184    -264.700
  O     -392.877    -131.529    -264.275
  C     -394.247    -129.714    -265.114
  O     -394.143    -128.857    -263.961
  C     -393.127    -129.284    -266.054
  O     -393.418    -129.658    -267.390
  C     -393.167    -127.775    -265.866
  O     -394.240    -127.215    -266.650
  C     -393.484    -127.628    -264.368
  N     -390.214    -124.150    -262.481
  C     -391.153    -124.066    -263.447
  N     -391.956    -125.040    -263.926
  C     -391.716    -126.206    -263.305
  C     -390.789    -126.443    -262.297
  C     -390.021    -125.346    -261.876
  N     -389.070    -125.430    -260.881
  N     -390.827    -127.763    -261.898
  C     -391.795    -128.301    -262.612
  N     -392.340    -127.408    -263.502
  O     -393.627    -132.874    -262.143
  O     -392.857    -134.024    -264.355
  H     -395.080    -127.497    -266.245
  H     -392.086    -134.060    -264.948
  H     -391.280    -123.085    -263.895
  H     -392.149    -129.320    -262.513
  H     -394.181    -126.805    -264.178
  H     -392.246    -127.290    -266.200
  H     -392.156    -129.660    -265.717
  H     -395.230    -129.533    -265.568
  H     -394.909    -131.372    -263.898
  H     -388.450    -124.646    -260.763
  H     -388.842    -126.345    -260.523
  H     -394.440    -131.826    -265.549
  P     -392.256    -129.708    -268.495
  C     -391.674    -128.149    -270.455
  O     -392.153    -128.232    -269.118
  O     -392.389    -130.797    -269.501
  O     -390.905    -129.839    -267.651
  H     -390.279    -130.436    -268.104
  H     -391.648    -127.124    -270.762
  H     -392.325    -128.699    -271.102
  H     -390.688    -128.562    -270.507

 6  7  8  9  10  11  12  13  14  15  25  28  32  33  34  35 0
 6-311+G(2d,p)
 ****
 36  39  40 0
 6-311+G(2d,p)
 ****
 1  2  3  4  5  16  17  18  19  20  21  22  23  24 0
 3-21G
 ****
 26  27  29  30  31  37  38  41  42  43  44  45  46  47 0
 3-21G
 ****
 48 0
 3-21G
 ****


