%nproc=1
%NoSave
%Mem=1900MB
#P OB98/GEN NMR

erre ene a

0 1
  C       24.379      31.738       8.053
  O       24.560      32.706       9.071
  P       23.344      33.087      10.039
  C       22.560      35.253       8.830
  O       23.167      34.677       9.966
  C       22.676      36.783       8.854
  O       22.121      37.291       7.617
  C       21.898      37.467       9.973
  O       22.410      38.790      10.141
  C       20.505      37.532       9.386
  O       19.695      38.514      10.026
  C       20.786      37.782       7.882
  N       19.806      37.090       7.026
  C       18.465      37.405       7.224
  O       18.090      38.273       8.011
  N       17.563      36.630       6.548
  C       17.877      35.567       5.754
  O       17.072      34.709       5.411
  C       19.298      35.438       5.398
  C       20.190      36.178       6.062
  O       23.959      32.838      11.495
  O       22.097      32.301       9.822
  H       20.108      39.389       9.840
  H       23.706      31.954      11.821
  H       16.592      36.764       6.802
  H       19.573      34.703       4.654
  H       21.251      36.067       5.858
  H       20.750      38.851       7.641
  H       20.014      36.561       9.519
  H       21.914      36.930      10.926
  H       23.735      37.066       8.892
  H       21.511      34.947       8.787
  H       23.030      34.875       7.915
  P       23.169      39.132      11.511
  C       21.555      41.074      11.974
  O       22.903      40.686      11.798
  O       24.594      38.697      11.595
  O       22.261      38.408      12.617
  H       22.772      38.294      13.439
  H       21.522      41.942      12.637
  H       20.960      40.269      12.413
  H       21.131      41.350      11.005
  H       25.293      31.615       7.511
  H       23.609      32.063       7.385
  H       24.098      30.805       8.494

 3  4  5  6  7  8  9  10  11  12  13  23  28  29  30  31  32 0
 6-311+G(2d,p)
 ****
 33  34 0
 6-311+G(2d,p)
 ****
 1  2  14  15  16  17  18  19  20  21  22  24  25  26  27 0
 3-21G
 ****
 35  36  37  38  39  40  41  42  43  44  45 0
 3-21G
 ****


