%nproc=1
%NoSave
%Mem=1900MB
#P OB98/GEN NMR

erre ene a

0 1
  C       19.149     -83.759     -41.225
  O       17.953     -83.248     -40.669
  P       17.753     -81.675     -40.463
  C       19.427     -81.456     -38.536
  O       18.062     -81.346     -38.921
  C       19.621     -81.083     -37.067
  O       21.013     -81.292     -36.705
  C       19.273     -79.628     -36.723
  O       18.744     -79.633     -35.394
  C       20.632     -78.948     -36.728
  O       20.644     -77.729     -35.994
  C       21.492     -80.057     -36.130
  N       26.152     -79.424     -34.128
  C       24.932     -79.504     -33.556
  N       23.735     -79.646     -34.160
  C       23.880     -79.711     -35.494
  C       25.055     -79.614     -36.221
  C       26.242     -79.480     -35.479
  N       27.498     -79.433     -36.042
  N       24.788     -79.666     -37.577
  C       23.480     -79.792     -37.661
  N       22.897     -79.889     -36.428
  O       16.462     -81.125     -40.969
  O       18.998     -81.023     -41.228
  H       20.457     -77.931     -35.058
  H       18.697     -80.618     -42.066
  H       24.915     -79.451     -32.471
  H       22.909     -79.818     -38.578
  H       21.381     -80.125     -35.042
  H       20.929     -78.725     -37.759
  H       18.568     -79.163     -37.419
  H       19.024     -81.772     -36.458
  H       20.010     -80.773     -39.162
  H       28.284     -79.471     -35.414
  H       27.614     -79.736     -37.008
  H       19.781     -82.477     -38.716
  P       17.297     -79.006     -35.107
  C       17.188     -77.135     -36.850
  O       17.390     -77.454     -35.485
  O       16.726     -79.305     -33.760
  O       16.389     -79.611     -36.282
  H       15.446     -79.521     -36.045
  H       18.110     -77.318     -37.407
  H       16.925     -76.077     -36.933
  H       16.381     -77.736     -37.280
  H       19.089     -84.826     -41.280
  H       19.977     -83.480     -40.608
  H       19.285     -83.358     -42.208

 3  4  5  6  7  8  9  10  11  12  22  25  29  30  31  32 0
 6-311+G(2d,p)
 ****
 33  36  37 0
 6-311+G(2d,p)
 ****
 1  2  13  14  15  16  17  18  19  20  21  23  24  26 0
 3-21G
 ****
 27  28  34  35  38  39  40  41  42  43  44  45  46  47  48 0
 3-21G
 ****


