%nproc=1
%NoSave
%Mem=1900MB
#P OB98/GEN NMR

erre ene a

0 1
  C      227.063    -201.335     393.911
  O      226.814    -201.340     395.326
  P      227.759    -200.459     396.289
  C      229.801    -200.883     397.862
  O      229.042    -201.318     396.741
  C      231.231    -201.451     397.819
  O      231.221    -202.878     398.147
  C      231.929    -201.312     396.457
  O      233.325    -201.133     396.714
  C      231.686    -202.676     395.826
  O      232.582    -202.965     394.767
  C      231.841    -203.575     397.049
  N      231.270    -204.917     396.892
  C      232.122    -205.951     396.508
  O      233.314    -205.806     396.246
  N      231.533    -207.187     396.414
  C      230.220    -207.483     396.617
  O      229.752    -208.601     396.484
  C      229.361    -206.337     396.983
  C      229.922    -205.133     397.104
  O      226.897    -200.389     397.639
  O      228.063    -199.076     395.802
  H      232.581    -202.195     394.166
  H      226.890    -199.482     397.976
  H      232.138    -207.955     396.163
  H      228.306    -206.526     397.150
  H      229.307    -204.275     397.384
  H      232.909    -203.668     397.298
  H      230.666    -202.705     395.418
  H      231.539    -200.481     395.859
  H      231.816    -200.953     398.599
  H      229.311    -201.222     398.784
  H      229.830    -199.787     397.875
  P      233.991    -199.704     396.362
  C      235.576    -198.851     394.464
  O      234.756    -199.876     394.962
  O      235.185    -199.677     397.432
  O      233.059    -198.551     396.473
  H      235.673    -200.513     397.480
  H      236.175    -198.391     395.254
  H      234.954    -198.085     393.982
  H      236.260    -199.269     393.716
  H      226.351    -201.966     393.421
  H      228.052    -201.698     393.722
  H      226.972    -200.337     393.536

 3  4  5  6  7  8  9  10  11  12  13  23  28  29  30  31  32 0
 6-311+G(2d,p)
 ****
 33  34 0
 6-311+G(2d,p)
 ****
 1  2  14  15  16  17  18  19  20  21  22  24  25  26 0
 3-21G
 ****
 27  35  36  37  38  39  40  41  42  43  44  45 0
 3-21G
 ****


