%nproc=1
%NoSave
%Mem=1900MB
#P OB98/GEN NMR

erre ene a

0 1
  C      -74.856     -66.393    -180.662
  O      -74.302     -65.354    -181.458
  P      -75.327     -64.358    -182.198
  C      -77.269     -64.707    -183.894
  O      -76.125     -65.268    -183.253
  C      -77.420     -65.267    -185.305
  O      -76.447     -64.666    -186.185
  C      -77.205     -66.767    -185.418
  O      -78.364     -67.503    -185.060
  C      -76.926     -66.907    -186.906
  O      -78.167     -66.872    -187.641
  C      -76.102     -65.648    -187.198
  N      -71.893     -66.147    -190.066
  C      -73.196     -65.987    -190.398
  N      -74.259     -65.872    -189.574
  C      -73.878     -65.976    -188.288
  C      -72.596     -66.178    -187.804
  C      -71.570     -66.254    -188.755
  N      -70.237     -66.387    -188.419
  N      -72.601     -66.236    -186.428
  C      -73.860     -66.061    -186.084
  N      -74.673     -65.891    -187.172
  O      -74.365     -63.476    -183.125
  O      -76.161     -63.520    -181.290
  H      -78.673     -66.105    -187.305
  H      -74.794     -62.624    -183.337
  H      -73.409     -65.936    -191.461
  H      -74.230     -66.042    -185.068
  H      -76.344     -65.208    -188.171
  H      -76.431     -67.850    -187.160
  H      -76.323     -67.086    -184.848
  H      -78.419     -64.991    -185.671
  H      -77.148     -63.620    -183.948
  H      -69.549     -66.247    -189.142
  H      -69.979     -66.264    -187.446
  H      -78.159     -64.933    -183.295
  P      -78.137     -68.816    -184.162
  C      -76.546     -70.862    -184.379
  O      -77.144     -69.744    -185.008
  O      -79.547     -69.569    -184.259
  O      -77.740     -68.532    -182.750
  H      -79.684     -70.137    -183.474
  H      -76.168     -71.538    -185.151
  H      -77.274     -71.406    -183.766
  H      -75.709     -70.533    -183.753
  H      -74.066     -66.974    -180.233
  H      -75.470     -67.022    -181.273
  H      -75.449     -65.966    -179.881

 3  4  5  6  7  8  9  10  11  12  22  25  29  30  31  32 0
 6-311+G(2d,p)
 ****
 33  36  37 0
 6-311+G(2d,p)
 ****
 1  2  13  14  15  16  17  18  19  20  21  23  24  26 0
 3-21G
 ****
 27  28  34  35  38  39  40  41  42  43  44  45  46  47  48 0
 3-21G
 ****


