%nproc=1
%NoSave
%Mem=1900MB
#P OB98/GEN NMR

erre ene a

0 1
  C      735.854     294.981     345.134
  O      735.165     294.025     345.914
  P      735.964     292.779     346.540
  C      737.051     290.638     345.623
  O      736.047     291.629     345.419
  C      737.569     290.121     344.285
  O      738.453     291.099     343.664
  C      738.409     288.852     344.392
  O      737.604     287.722     344.651
  C      739.102     288.847     343.029
  O      738.227     288.331     342.013
  C      739.360     290.353     342.803
  N      740.748     290.719     343.064
  C      741.228     291.813     342.335
  O      740.527     292.344     341.462
  N      742.506     292.266     342.591
  C      743.269     291.609     343.414
  N      744.500     292.123     343.683
  C      742.844     290.357     344.080
  C      741.571     289.987     343.876
  O      735.474     292.310     347.868
  O      737.468     293.290     346.642
  H      737.813     293.100     347.553
  H      738.101     287.391     342.203
  H      743.544     289.804     344.718
  H      741.180     289.101     344.346
  H      739.095     290.633     341.785
  H      740.004     288.223     343.040
  H      739.154     288.961     345.190
  H      736.709     289.969     343.613
  H      744.745     292.993     343.216
  H      736.617     289.819     346.196
  H      745.027     291.898     344.530
  H      737.869     291.062     346.220
  P      738.369     286.344     345.006
  C      740.131     284.889     343.783
  O      739.127     285.859     343.672
  O      737.186     285.280     345.182
  O      739.232     286.408     346.230
  H      737.405     284.657     345.877
  H      740.286     284.443     342.796
  H      739.861     284.117     344.499
  H      741.081     285.379     344.094
  H      735.168     295.733     344.803
  H      736.292     294.500     344.285
  H      736.623     295.435     345.723

 3  4  5  6  7  8  9  10  11  12  13  24  27  28  29  30  32 0
 6-311+G(2d,p)
 ****
 34  35 0
 6-311+G(2d,p)
 ****
 1  2  14  15  16  17  18  19  20  21  22  23  25  26 0
 3-21G
 ****
 31  33  36  37  38  39  40  41  42  43  44  45  46 0
 3-21G
 ****


