%nproc=1
%NoSave
%Mem=1900MB
#P OB98/GEN NMR

erre ene a

0 1
  C      278.315    -238.796     381.347
  O      278.668    -239.350     380.088
  P      277.628    -240.350     379.397
  C      278.604    -242.656     380.142
  O      277.578    -241.682     380.292
  C      278.312    -243.864     381.045
  O      278.138    -243.431     382.415
  C      277.021    -244.588     380.681
  O      277.209    -245.444     379.557
  C      276.728    -245.339     381.974
  O      277.470    -246.568     382.042
  C      277.212    -244.340     383.040
  N      276.113    -243.636     383.696
  C      275.717    -244.137     384.940
  O      276.236    -245.125     385.450
  N      274.673    -243.481     385.538
  C      273.964    -242.437     385.014
  O      273.004    -241.934     385.576
  C      274.411    -241.969     383.688
  C      275.443    -242.583     383.097
  O      278.382    -240.821     378.062
  O      276.290    -239.758     379.101
  H      277.150    -247.052     382.831
  H      277.734    -240.942     377.343
  H      274.391    -243.813     386.447
  H      273.875    -241.139     383.240
  H      275.777    -242.261     382.114
  H      277.793    -244.866     383.816
  H      275.668    -245.609     382.061
  H      276.221    -243.870     380.490
  H      279.168    -244.545     381.002
  H      279.566    -242.213     380.417
  H      278.650    -242.965     379.092
  P      275.972    -245.621     378.563
  C      275.304    -247.807     379.830
  O      274.920    -246.540     379.362
  O      276.605    -246.588     377.461
  O      275.450    -244.320     378.036
  H      277.262    -247.192     377.834
  H      276.351    -247.825     380.156
  H      275.166    -248.547     379.035
  H      274.665    -248.081     380.680
  H      279.099    -238.151     381.685
  H      278.171    -239.584     382.056
  H      277.409    -238.235     381.248

 3  4  5  6  7  8  9  10  11  12  13  23  28  29  30  31  32 0
 6-311+G(2d,p)
 ****
 33  34 0
 6-311+G(2d,p)
 ****
 1  2  14  15  16  17  18  19  20  21  22  24  25  26 0
 3-21G
 ****
 27  35  36  37  38  39  40  41  42  43  44  45 0
 3-21G
 ****


