%nproc=1
%NoSave
%Mem=1900MB
#P OB98/GEN NMR

erre ene a

0 1
  C     -270.069     178.152     189.673
  O     -268.730     178.304     190.104
  H     -270.068     177.775     188.651
  H     -270.588     179.117     189.695
  H     -270.586     177.431     190.314
  P     -268.508     178.905     191.576
  C     -269.101     181.162     192.676
  O     -268.969     180.442     191.456
  C     -269.857     182.478     192.437
  O     -268.945     183.426     191.839
  C     -271.061     182.330     191.497
  O     -272.101     183.208     191.939
  C     -270.515     182.819     190.163
  O     -271.549     183.264     189.290
  C     -269.555     183.913     190.622
  N     -266.450     187.517     188.782
  C     -267.230     187.465     189.887
  N     -268.006     186.445     190.317
  C     -267.890     185.379     189.498
  C     -267.144     185.286     188.335
  C     -266.402     186.421     187.973
  N     -265.643     186.496     186.834
  N     -267.320     184.039     187.756
  C     -268.156     183.402     188.553
  N     -268.545     184.181     189.613
  O     -267.154     178.694     192.164
  O     -269.720     178.244     192.389
  H     -272.090     183.934     189.766
  H     -270.559     178.309     191.894
  H     -267.229     188.358     190.506
  H     -268.522     182.385     188.408
  H     -270.057     184.858     190.845
  H     -269.979     182.010     189.660
  H     -271.434     181.305     191.437
  H     -270.155     182.886     193.409
  H     -268.108     181.380     193.093
  H     -265.136     187.355     186.653
  H     -265.580     185.695     186.223
  H     -269.646     180.531     193.390
  P     -273.574     182.622     192.143
  C     -275.681     182.149     190.715
  O     -274.360     182.675     190.735
  O     -274.337     183.167     193.306
  O     -273.311     181.044     192.331
  H     -273.888     180.702     193.041
  H     -276.088     182.244     189.730
  H     -276.291     182.691     191.407
  H     -275.658     181.116     190.994

 6  7  8  9  10  11  12  13  14  15  25  28  32  33  34  35 0
 6-311+G(2d,p)
 ****
 36  39  40 0
 6-311+G(2d,p)
 ****
 1  2  3  4  5  16  17  18  19  20  21  22  23  24 0
 3-21G
 ****
 26  27  29  30  31  37  38  41  42  43  44  45  46  47 0
 3-21G
 ****
 48 0
 3-21G
 ****


