%nproc=1
%NoSave
%Mem=1900MB
#P OB98/GEN NMR

erre ene a

0 1
  C     -103.831     -92.034     341.727
  O     -105.242     -92.068     341.733
  H     -103.504     -91.024     341.465
  H     -103.442     -92.735     340.984
  H     -103.440     -92.288     342.716
  P     -105.932     -93.472     342.092
  C     -107.316     -94.203     340.021
  O     -107.313     -93.516     341.265
  C     -108.506     -93.751     339.169
  O     -109.706     -93.746     339.995
  C     -108.348     -92.341     338.578
  O     -108.913     -92.327     337.264
  C     -109.208     -91.488     339.491
  O     -109.636     -90.281     338.862
  C     -110.335     -92.463     339.812
  N     -113.255     -88.836     341.727
  C     -112.697     -88.968     340.473
  N     -112.950     -87.978     339.585
  N     -111.951     -89.983     340.113
  C     -111.803     -90.907     341.092
  C     -112.294     -90.893     342.378
  C     -113.098     -89.752     342.768
  O     -113.605     -89.568     343.872
  N     -111.891     -92.003     343.074
  C     -111.161     -92.691     342.212
  N     -111.080     -92.067     340.996
  O     -106.412     -93.274     343.608
  O     -105.066     -94.676     341.928
  H     -109.925     -89.663     339.565
  H     -106.411     -94.129     344.084
  H     -113.811     -88.030     341.952
  H     -110.667     -93.634     342.415
  H     -111.061     -92.549     338.998
  H     -108.649     -91.219     340.399
  H     -113.538     -87.187     339.779
  H     -107.312     -91.997     338.537
  H     -112.558     -88.062     338.653
  H     -108.672     -94.493     338.381
  H     -107.391     -95.280     340.210
  H     -106.384     -93.993     339.492
  P     -107.900     -92.232     336.021
  C     -108.468     -89.801     335.294
  O     -108.484     -91.183     334.954
  O     -108.091     -93.650     335.292
  O     -106.473     -92.019     336.420
  H     -107.305     -94.201     335.440
  H     -108.886     -89.231     334.491
  H     -107.460     -89.488     335.467
  H     -109.047     -89.645     336.181

 6  7  8  9  10  11  12  13  14  15  26  29  33  34 0
 6-311+G(2d,p)
 ****
 36  38  39  40  41 0
 6-311+G(2d,p)
 ****
 1  2  3  4  5  16  17  18  19  20  21  22  23  24  25 0
 3-21G
 ****
 27  28  30  31  32  35  37  42  43  44  45  46  47 0
 3-21G
 ****
 48  49 0
 3-21G
 ****


