%nproc=1
%NoSave
%Mem=1900MB
#P OB98/GEN NMR

erre ene a

0 1
  C     -192.420      28.259     360.204
  O     -193.485      28.357     359.276
  H     -192.799      28.500     361.202
  H     -191.623      28.967     359.959
  H     -192.020      27.242     360.214
  P     -193.148      28.202     357.715
  C     -193.733      30.707     357.434
  O     -192.777      29.676     357.209
  C     -193.023      32.022     357.745
  O     -192.548      32.022     359.106
  C     -191.794      32.261     356.876
  O     -192.167      32.665     355.575
  C     -191.058      33.296     357.702
  O     -191.610      34.606     357.508
  C     -191.324      32.794     359.140
  N     -190.221      32.001     359.674
  C     -189.681      32.441     360.888
  O     -190.136      33.436     361.449
  N     -188.620      31.749     361.419
  C     -188.154      30.706     360.808
  N     -187.104      30.065     361.388
  C     -188.704      30.201     359.535
  C     -189.723      30.893     359.028
  O     -194.163      27.495     356.873
  O     -191.734      27.451     357.710
  H     -192.527      34.561     357.844
  H     -191.859      26.484     357.700
  H     -188.287      29.323     359.064
  H     -190.187      30.590     358.094
  H     -191.501      33.637     359.818
  H     -190.004      33.341     357.439
  H     -191.178      31.355     356.840
  H     -193.747      32.839     357.639
  H     -186.752      30.453     362.257
  H     -194.348      30.399     358.287
  H     -186.717      29.197     361.052
  H     -194.387      30.828     356.562
  P     -191.934      31.693     354.321
  C     -190.511      33.607     353.335
  O     -190.583      32.213     353.626
  O     -193.106      31.537     353.411
  O     -191.478      30.317     355.006
  H     -192.240      29.855     355.429
  H     -189.569      33.828     352.877
  H     -190.606      34.166     354.242
  H     -191.304      33.873     352.667

 6  7  8  9  10  11  12  13  14  15  16  26  30  31  32  33  35 0
 6-311+G(2d,p)
 ****
 37  38 0
 6-311+G(2d,p)
 ****
 1  2  3  4  5  17  18  19  20  21  22  23  24  25 0
 3-21G
 ****
 27  28  29  34  36  39  40  41  42  43  44  45  46 0
 3-21G
 ****


