%nproc=1
%NoSave
%Mem=1900MB
#P OB98/GEN NMR

erre ene a

0 1
  C       -3.945      -0.935     148.354
  O       -4.387       0.358     148.708
  H       -4.535      -1.290     147.506
  H       -4.080      -1.627     149.190
  H       -2.891      -0.904     148.063
  P       -3.717       1.025     150.004
  C       -5.486       1.206     151.899
  O       -4.474       0.421     151.281
  C       -6.762       1.140     151.065
  O       -7.058      -0.238     150.730
  C       -8.001       1.656     151.782
  O       -8.080       3.071     151.791
  C       -9.101       1.020     150.950
  O       -9.409       1.804     149.789
  C       -8.486      -0.337     150.560
  N       -9.058      -1.433     151.337
  C      -10.302      -1.890     150.911
  O      -10.900      -1.421     149.945
  N      -10.859      -2.889     151.661
  C      -10.330      -3.425     152.798
  O      -10.910      -4.281     153.455
  C       -9.023      -2.891     153.210
  C       -8.456      -1.931     152.475
  O       -4.227       2.540     149.939
  O       -2.228       0.936     150.058
  H       -3.495       3.122     149.665
  H       -9.933       1.223     149.203
  H      -11.759      -3.236     151.367
  H       -8.574      -3.293     154.110
  H       -7.497      -1.513     152.765
  H       -8.662      -0.546     149.497
  H      -10.018       0.923     151.526
  H       -8.046       1.251     152.800
  H       -6.597       1.693     150.131
  H       -5.158       2.247     151.962
  H       -5.660       0.830     152.912
  P       -8.895       3.767     152.985
  C      -11.128       4.924     152.211
  O      -10.435       3.732     152.541
  O       -8.450       5.291     152.795
  O       -8.592       3.180     154.322
  H       -8.211       5.486     151.872
  H      -12.137       4.688     151.943
  H      -10.643       5.402     151.386
  H      -11.128       5.582     153.055

 6  7  8  9  10  11  12  13  14  15  16  27  31  32  33  34  35 0
 6-311+G(2d,p)
 ****
 36  37 0
 6-311+G(2d,p)
 ****
 1  2  3  4  5  17  18  19  20  21  22  23  24  25 0
 3-21G
 ****
 26  28  29  30  38  39  40  41  42  43  44  45 0
 3-21G
 ****


