%nproc=1
%NoSave
%Mem=1900MB
#P OB98/GEN NMR

erre ene a

0 1
  C        7.276      77.323     -53.575
  O        7.745      77.820     -52.342
  H        7.958      76.541     -53.919
  H        7.265      78.129     -54.314
  H        6.274      76.898     -53.481
  P        6.733      78.623     -51.401
  C        6.837      79.163     -48.879
  O        6.991      78.167     -49.883
  C        7.444      78.721     -47.548
  O        6.709      77.592     -47.030
  C        8.902      78.273     -47.687
  O        9.851      79.321     -47.588
  C        9.043      77.295     -46.524
  O        9.431      77.971     -45.317
  C        7.635      76.708     -46.381
  N        9.267      71.865     -46.299
  C        9.807      72.972     -45.671
  N       10.939      72.759     -44.968
  N        9.285      74.167     -45.748
  C        8.212      74.241     -46.567
  C        7.601      73.219     -47.257
  C        8.140      71.884     -47.108
  O        7.691      70.870     -47.629
  N        6.557      73.680     -48.023
  C        6.596      74.988     -47.861
  N        7.530      75.367     -46.926
  O        5.312      77.953     -51.725
  O        6.681      80.104     -51.626
  H        8.793      78.693     -45.156
  H        4.607      78.618     -51.625
  H        9.696      70.965     -46.180
  H        5.945      75.698     -48.357
  H        7.332      76.648     -45.328
  H        9.818      76.553     -46.731
  H       11.429      71.880     -44.946
  H        9.049      77.719     -48.618
  H       11.469      73.573     -44.651
  H        7.342      79.533     -46.817
  H        5.765      79.326     -48.765
  H        7.281      80.106     -49.208
  P       11.154      79.339     -48.513
  C       13.150      81.007     -48.863
  O       11.844      80.770     -48.385
  O       10.546      79.352     -49.993
  O       12.102      78.204     -48.307
  H       10.551      78.455     -50.375
  H       13.418      82.026     -48.678
  H       13.185      80.814     -49.915
  H       13.837      80.360     -48.358

 6  7  8  9  10  11  12  13  14  15  26  29  33  34 0
 6-311+G(2d,p)
 ****
 36  38  39  40  41 0
 6-311+G(2d,p)
 ****
 1  2  3  4  5  16  17  18  19  20  21  22  23  24  25 0
 3-21G
 ****
 27  28  30  31  32  35  37  42  43  44  45  46  47 0
 3-21G
 ****
 48  49 0
 3-21G
 ****


