%nproc=1
%NoSave
%Mem=1900MB
#P OB98/GEN NMR

erre ene a

0 1
  C      123.294      43.864      44.872
  O      121.926      43.889      45.229
  H      123.598      42.824      44.720
  H      123.897      44.293      45.678
  H      123.458      44.423      43.946
  P      121.230      45.328      45.334
  C      121.249      47.275      47.097
  O      121.610      45.939      46.771
  C      121.086      47.417      48.608
  O      120.070      46.526      49.110
  C      122.326      47.037      49.401
  O      123.368      47.979      49.270
  C      121.742      46.951      50.803
  O      121.582      48.255      51.378
  C      120.362      46.306      50.518
  N      120.325      44.893      50.864
  C      120.442      44.596      52.227
  O      120.555      45.503      53.053
  N      120.456      43.279      52.616
  C      120.337      42.342      51.727
  N      120.368      41.058      52.176
  C      120.185      42.611      50.284
  C      120.193      43.893      49.926
  O      119.685      44.958      45.504
  O      121.522      46.261      44.203
  H      122.483      48.613      51.502
  H      119.510      44.339      46.233
  H      120.080      41.798      49.579
  H      120.087      44.179      48.888
  H      119.573      46.818      51.086
  H      122.380      46.381      51.480
  H      122.664      46.033      49.115
  H      120.773      48.448      48.821
  H      120.495      40.912      53.169
  H      120.331      47.569      46.579
  H      120.319      40.249      51.574
  H      122.052      47.930      46.741
  P      124.898      47.501      49.232
  C      126.585      46.609      50.961
  O      125.331      47.255      50.759
  O      125.820      48.386      48.461
  O      124.803      46.007      48.662
  H      124.271      45.397      49.204
  H      126.765      46.500      52.010
  H      127.364      47.198      50.525
  H      126.567      45.644      50.500

 6  7  8  9  10  11  12  13  14  15  16  26  30  31  32  33  35 0
 6-311+G(2d,p)
 ****
 37  38 0
 6-311+G(2d,p)
 ****
 1  2  3  4  5  17  18  19  20  21  22  23  24  25 0
 3-21G
 ****
 27  28  29  34  36  39  40  41  42  43  44  45  46 0
 3-21G
 ****


