%nproc=1
%NoSave
%Mem=1900MB
#P OB98/GEN NMR

erre ene a

0 1
  C     -359.242     233.493      48.329
  O     -359.380     232.740      47.133
  P     -358.586     231.363      46.918
  C     -360.148     229.921      48.353
  O     -358.829     230.443      48.210
  C     -360.189     228.417      48.064
  O     -359.301     227.725      48.993
  C     -361.585     227.787      48.206
  O     -361.699     226.800      47.165
  C     -361.535     227.125      49.564
  O     -362.492     226.082      49.698
  C     -360.074     226.672      49.609
  N     -359.614     226.409      50.970
  C     -359.996     225.192      51.545
  O     -360.788     224.449      50.958
  N     -359.470     224.844      52.766
  C     -358.790     225.728      53.438
  N     -358.233     225.329      54.619
  C     -358.577     227.117      52.973
  C     -358.977     227.368      51.723
  O     -357.154     231.519      46.526
  O     -359.412     230.609      45.771
  H     -358.799     230.350      45.051
  H     -363.389     226.479      49.768
  H     -358.117     227.847      53.615
  H     -358.847     228.353      51.280
  H     -359.924     225.769      49.010
  H     -361.732     227.872      50.347
  H     -362.395     228.524      48.091
  H     -359.792     228.248      47.053
  H     -358.361     224.359      54.890
  H     -360.797     230.437      47.639
  H     -357.445     225.822      55.042
  H     -360.522     230.129      49.359
  P     -363.169     226.455      46.601
  C     -362.945     228.352      44.841
  O     -363.732     227.756      45.852
  O     -364.033     226.447      47.960
  O     -363.330     225.146      45.900
  H     -364.828     225.881      47.833
  H     -363.447     229.264      44.494
  H     -362.833     227.660      43.995
  H     -361.954     228.617      45.227
  H     -359.852     234.370      48.270
  H     -358.218     233.778      48.455
  H     -359.552     232.898      49.163

 3  4  5  6  7  8  9  10  11  12  13  24  27  28  29  30  32 0
 6-311+G(2d,p)
 ****
 34  35 0
 6-311+G(2d,p)
 ****
 1  2  14  15  16  17  18  19  20  21  22  23  25  26 0
 3-21G
 ****
 31  33  36  37  38  39  40  41  42  43  44  45  46 0
 3-21G
 ****


