%nproc=1
%NoSave
%Mem=1900MB
#P OB98/GEN NMR

erre ene a

0 1
  C     -247.005     647.628     796.154
  O     -248.027     648.395     796.757
  H     -246.118     648.241     796.031
  H     -247.320     647.264     795.171
  H     -246.746     646.766     796.792
  P     -249.457     647.687     796.926
  C     -248.856     646.940     799.346
  O     -249.174     646.542     798.029
  C     -250.055     646.665     800.272
  O     -250.618     645.364     799.997
  C     -249.708     646.667     801.780
  O     -249.557     647.945     802.319
  C     -250.943     645.956     802.319
  O     -252.058     646.873     802.313
  C     -251.123     644.841     801.271
  N     -250.421     643.588     801.625
  C     -251.234     642.466     801.868
  O     -252.469     642.560     801.798
  N     -250.626     641.297     802.243
  C     -249.341     641.214     802.340
  N     -248.813     640.013     802.695
  C     -248.443     642.367     802.070
  C     -249.050     643.498     801.715
  O     -249.614     646.847     795.575
  O     -250.606     648.598     797.232
  H     -251.792     647.630     802.839
  H     -250.397     646.249     795.629
  H     -247.378     642.271     802.166
  H     -248.458     644.382     801.498
  H     -252.211     644.597     801.117
  H     -250.822     645.609     803.349
  H     -248.825     646.034     801.986
  H     -250.826     647.414     800.060
  H     -249.441     639.263     802.929
  H     -248.612     648.013     799.349
  H     -247.816     639.926     802.933
  H     -247.998     646.375     799.723
  P     -248.319     648.193     803.333
  C     -246.537     649.250     801.713
  O     -246.974     648.086     802.452
  O     -248.298     646.827     804.190
  O     -248.432     649.407     804.185
  H     -248.020     647.000     805.110
  H     -245.636     649.019     801.183
  H     -246.354     650.056     802.393
  H     -247.297     649.536     801.016

 6  7  8  9  10  11  12  13  14  15  16  26  30  31  32  33  35 0
 6-311+G(2d,p)
 ****
 37  38 0
 6-311+G(2d,p)
 ****
 1  2  3  4  5  17  18  19  20  21  22  23  24  25 0
 3-21G
 ****
 27  28  29  34  36  39  40  41  42  43  44  45  46 0
 3-21G
 ****


