%nproc=1
%NoSave
%Mem=1900MB
#P OB98/GEN NMR

erre ene a

0 1
  C      379.461     -35.713     133.502
  O      378.955     -36.038     132.219
  P      379.383     -35.121     130.979
  C      377.441     -33.415     131.211
  O      378.061     -34.410     130.409
  C      376.433     -32.602     130.392
  O      375.608     -31.809     131.282
  C      377.091     -31.637     129.397
  O      376.265     -31.527     128.226
  C      377.034     -30.306     130.113
  O      377.092     -29.212     129.192
  C      375.708     -30.434     130.859
  N      374.592     -25.730     132.334
  C      374.314     -26.365     131.141
  N      373.730     -25.610     130.181
  N      374.568     -27.622     130.913
  C      375.160     -28.249     131.959
  C      375.471     -27.730     133.198
  C      375.191     -26.333     133.432
  O      375.441     -25.708     134.457
  N      376.025     -28.685     134.012
  C      376.091     -29.768     133.259
  N      375.611     -29.543     131.995
  O      379.751     -36.193     129.849
  O      380.535     -34.210     131.247
  H      377.926     -29.311     128.691
  H      380.717     -36.247     129.742
  H      374.385     -24.751     132.462
  H      376.495     -30.723     133.572
  H      374.854     -30.230     130.198
  H      377.879     -30.212     130.806
  H      373.568     -24.616     130.275
  H      378.109     -31.912     129.103
  H      373.557     -26.038     129.283
  H      375.766     -33.302     129.872
  H      378.209     -32.740     131.600
  H      376.939     -33.890     132.061
  P      376.960     -31.955     126.837
  C      378.930     -30.306     127.270
  O      377.879     -30.711     126.415
  O      375.746     -31.905     125.793
  O      377.629     -33.284     126.873
  H      375.926     -32.500     125.040
  H      379.882     -30.441     126.749
  H      378.951     -30.879     128.203
  H      378.805     -29.248     127.507
  H      379.088     -36.413     134.220
  H      379.147     -34.726     133.769
  H      380.530     -35.755     133.485

 3  4  5  6  7  8  9  10  11  12  23  26  30  31 0
 6-311+G(2d,p)
 ****
 33  35  36  37  38 0
 6-311+G(2d,p)
 ****
 1  2  13  14  15  16  17  18  19  20  21  22  24  25 0
 3-21G
 ****
 27  28  29  32  34  39  40  41  42  43  44  45  46  47  48  49 0
 3-21G
 ****


