%nproc=1
%NoSave
%Mem=1900MB
#P OB98/GEN NMR

erre ene a

0 1
  C      -47.888     -18.849      22.487
  O      -48.608     -20.044      22.256
  H      -47.376     -18.897      23.451
  H      -47.141     -18.729      21.698
  H      -48.566     -17.990      22.468
  P      -49.738     -20.426      23.331
  C      -47.908     -21.662      24.708
  O      -48.942     -20.688      24.701
  C      -47.737     -22.205      26.123
  O      -47.440     -21.124      27.036
  C      -48.984     -22.884      26.676
  O      -49.114     -24.226      26.238
  C      -48.704     -22.816      28.168
  O      -47.741     -23.822      28.529
  C      -48.089     -21.415      28.304
  N      -48.873     -16.363      28.590
  C      -47.795     -17.089      28.222
  N      -47.674     -18.430      28.152
  C      -48.822     -19.031      28.502
  C      -50.005     -18.423      28.892
  C      -50.006     -17.018      28.936
  N      -51.093     -16.275      29.341
  N      -50.962     -19.372      29.196
  C      -50.370     -20.529      28.973
  N      -49.067     -20.375      28.584
  O      -50.197     -21.896      22.895
  O      -50.876     -19.468      23.450
  H      -47.419     -23.600      29.423
  H      -51.032     -22.137      23.339
  H      -46.912     -16.516      27.952
  H      -50.837     -21.499      29.088
  H      -47.326     -21.363      29.089
  H      -49.597     -22.994      28.774
  H      -49.889     -22.305      26.456
  H      -46.879     -22.890      26.128
  H      -46.975     -21.195      24.376
  H      -50.949     -15.287      29.480
  H      -51.887     -16.754      29.739
  H      -48.168     -22.474      24.022
  P      -50.600     -24.824      26.113
  C      -50.334     -25.602      28.577
  O      -51.160     -24.963      27.611
  O      -50.339     -26.339      25.674
  O      -51.484     -24.098      25.152
  H      -51.060     -26.665      25.101
  H      -50.838     -25.620      29.521
  H      -49.415     -25.063      28.673
  H      -50.128     -26.604      28.263

 6  7  8  9  10  11  12  13  14  15  25  28  32  33  34  35 0
 6-311+G(2d,p)
 ****
 36  39  40 0
 6-311+G(2d,p)
 ****
 1  2  3  4  5  16  17  18  19  20  21  22  23  24 0
 3-21G
 ****
 26  27  29  30  31  37  38  41  42  43  44  45  46  47 0
 3-21G
 ****
 48 0
 3-21G
 ****


