%nproc=1
%NoSave
%Mem=1900MB
#P OB98/GEN NMR

erre ene a

0 1
  C     -329.972    -204.114     345.595
  O     -330.963    -203.308     346.210
  P     -332.346    -203.940     346.718
  C     -331.601    -203.660     349.163
  O     -332.010    -204.575     348.151
  C     -332.141    -204.103     350.518
  O     -333.581    -203.935     350.513
  C     -331.914    -205.570     350.883
  O     -330.643    -205.845     351.458
  C     -332.995    -205.772     351.936
  O     -332.562    -205.217     353.192
  C     -334.159    -204.955     351.368
  N     -337.274    -209.011     351.482
  C     -336.506    -208.430     352.433
  N     -335.691    -207.364     352.320
  C     -335.743    -206.862     351.073
  C     -336.479    -207.337     350.004
  C     -337.274    -208.471     350.242
  N     -338.072    -209.044     349.276
  N     -336.258    -206.566     348.878
  C     -335.414    -205.634     349.274
  N     -335.082    -205.764     350.594
  O     -333.004    -204.853     345.742
  O     -333.247    -202.673     347.089
  H     -331.682    -205.593     353.380
  H     -334.186    -202.936     347.155
  H     -336.553    -208.890     353.416
  H     -335.019    -204.854     348.642
  H     -334.732    -204.442     352.146
  H     -333.224    -206.828     352.114
  H     -332.112    -206.231     350.030
  H     -331.727    -203.443     351.288
  H     -332.008    -202.674     348.917
  H     -338.705    -209.771     349.572
  H     -338.198    -208.547     348.407
  H     -330.513    -203.591     349.176
  P     -330.131    -207.369     351.406
  C     -329.436    -207.147     348.892
  O     -330.221    -207.801     349.866
  O     -330.804    -208.284     352.370
  O     -328.556    -207.220     351.655
  H     -328.064    -206.775     350.945
  H     -329.524    -207.690     347.946
  H     -328.385    -207.126     349.184
  H     -329.798    -206.126     348.743
  H     -329.132    -203.507     345.331
  H     -330.376    -204.566     344.714
  H     -329.660    -204.878     346.276

 3  4  5  6  7  8  9  10  11  12  22  25  29  30  31  32 0
 6-311+G(2d,p)
 ****
 33  36  37 0
 6-311+G(2d,p)
 ****
 1  2  13  14  15  16  17  18  19  20  21  23  24  26 0
 3-21G
 ****
 27  28  34  35  38  39  40  41  42  43  44  45  46  47  48 0
 3-21G
 ****


