%nproc=1
%NoSave
%Mem=1900MB
#P OB98/GEN NMR

erre ene a

0 1
  C     -182.257     582.431    -140.462
  O     -181.125     583.000    -139.792
  P     -179.655     582.622    -140.308
  C     -177.903     584.494    -140.695
  O     -178.618     583.714    -139.743
  C     -177.281     585.729    -140.041
  O     -178.337     586.637    -139.618
  C     -176.444     585.445    -138.779
  O     -175.054     585.143    -138.926
  C     -176.531     586.773    -138.062
  O     -175.528     587.678    -138.581
  C     -177.923     587.303    -138.415
  N     -179.999     589.214    -134.133
  C     -179.047     589.695    -134.965
  N     -178.548     589.114    -136.089
  C     -179.146     587.933    -136.325
  C     -180.140     587.325    -135.564
  C     -180.572     588.021    -134.420
  N     -181.534     587.525    -133.566
  N     -180.503     586.116    -136.123
  C     -179.734     585.992    -137.190
  N     -178.911     587.075    -137.361
  O     -179.540     582.327    -141.761
  O     -179.298     581.335    -139.440
  H     -174.670     587.392    -138.218
  H     -178.788     580.704    -139.982
  H     -178.616     590.653    -134.692
  H     -179.738     585.137    -137.862
  H     -177.923     588.386    -138.615
  H     -176.331     586.692    -136.984
  H     -176.928     584.666    -138.165
  H     -176.645     586.252    -140.781
  H     -178.583     584.795    -141.502
  H     -181.753     588.064    -132.731
  H     -181.936     586.615    -133.727
  H     -177.168     583.824    -141.168
  P     -174.523     583.627    -138.939
  C     -172.157     582.555    -139.164
  O     -172.932     583.740    -139.118
  O     -175.206     582.716    -139.896
  O     -174.679     583.193    -137.388
  H     -174.081     583.653    -136.794
  H     -171.136     582.822    -139.497
  H     -172.572     581.826    -139.849
  H     -172.063     582.125    -138.148
  H     -183.157     582.780    -140.000
  H     -182.212     581.364    -140.395
  H     -182.247     582.724    -141.491

 3  4  5  6  7  8  9  10  11  12  22  25  29  30  31  32 0
 6-311+G(2d,p)
 ****
 33  36  37 0
 6-311+G(2d,p)
 ****
 1  2  13  14  15  16  17  18  19  20  21  23  24  26 0
 3-21G
 ****
 27  28  34  35  38  39  40  41  42  43  44  45  46  47  48 0
 3-21G
 ****


