%nproc=1
%NoSave
%Mem=1900MB
#P OB98/GEN NMR

erre ene a

0 1
  C     -113.935    -568.356    -142.249
  O     -115.232    -568.246    -142.804
  H     -113.767    -569.398    -141.960
  H     -113.849    -567.731    -141.358
  H     -113.174    -568.070    -142.981
  P     -115.676    -566.849    -143.450
  C     -114.678    -567.292    -145.785
  O     -114.617    -566.511    -144.601
  C     -115.415    -566.522    -146.879
  O     -114.830    -565.214    -147.049
  C     -115.350    -567.184    -148.254
  O     -116.233    -568.286    -148.331
  C     -115.706    -566.012    -149.150
  O     -117.125    -565.813    -149.191
  C     -115.000    -564.841    -148.436
  N     -113.722    -564.488    -149.047
  C     -113.752    -563.497    -150.026
  O     -114.791    -562.952    -150.403
  N     -112.546    -563.170    -150.584
  C     -111.361    -563.803    -150.351
  O     -110.322    -563.529    -150.945
  C     -111.388    -564.855    -149.328
  C     -112.550    -565.144    -148.733
  O     -115.937    -565.740    -142.483
  O     -116.997    -567.221    -144.278
  H     -117.279    -565.008    -149.726
  H     -117.782    -566.900    -143.801
  H     -112.553    -562.464    -151.304
  H     -110.462    -565.370    -149.102
  H     -112.589    -565.923    -147.978
  H     -115.641    -563.949    -148.444
  H     -115.376    -566.167    -150.177
  H     -114.320    -567.495    -148.467
  H     -116.460    -566.387    -146.560
  H     -115.218    -568.223    -145.567
  H     -113.657    -567.539    -146.102
  P     -115.857    -569.548    -149.243
  C     -115.614    -571.200    -147.294
  O     -114.951    -570.536    -148.360
  O     -115.301    -569.221    -150.592
  O     -117.233    -570.351    -149.375
  H     -117.492    -570.402    -150.317
  H     -114.918    -571.828    -146.777
  H     -116.410    -571.797    -147.686
  H     -116.013    -570.475    -146.615

 6  7  8  9  10  11  12  13  14  15  16  26  31  32  33  34  35 0
 6-311+G(2d,p)
 ****
 36  37 0
 6-311+G(2d,p)
 ****
 1  2  3  4  5  17  18  19  20  21  22  23  24  25 0
 3-21G
 ****
 27  28  29  30  38  39  40  41  42  43  44  45 0
 3-21G
 ****


