%nproc=1
%NoSave
%Mem=1900MB
#P OB98/GEN NMR

erre ene a

0 1
  C     -226.843    -262.464    1005.325
  O     -226.759    -261.404    1006.256
  P     -227.880    -260.268    1006.371
  C     -229.117    -261.570    1008.261
  O     -228.509    -260.341    1007.850
  C     -228.857    -261.897    1009.736
  O     -227.501    -262.375    1009.910
  C     -228.975    -260.625    1010.591
  O     -230.244    -260.186    1011.039
  C     -227.934    -260.799    1011.701
  O     -228.501    -261.268    1012.913
  C     -226.968    -261.831    1011.115
  N     -222.607    -260.180    1013.137
  C     -223.633    -260.903    1013.729
  N     -223.548    -261.040    1015.064
  N     -224.634    -261.426    1013.071
  C     -224.619    -261.116    1011.747
  C     -223.667    -260.426    1011.037
  C     -222.541    -259.894    1011.777
  O     -221.660    -259.163    1011.296
  N     -224.019    -260.257    1009.731
  C     -225.215    -260.803    1009.640
  N     -225.633    -261.330    1010.847
  O     -228.803    -260.114    1005.208
  O     -226.976    -258.936    1006.447
  H     -229.167    -260.628    1013.220
  H     -227.461    -258.219    1006.002
  H     -221.914    -259.741    1013.710
  H     -225.822    -260.840    1008.751
  H     -226.849    -262.678    1011.807
  H     -227.464    -259.843    1011.934
  H     -222.871    -260.522    1015.624
  H     -228.597    -259.797    1009.976
  H     -224.365    -261.420    1015.548
  H     -229.495    -262.722    1010.081
  H     -228.712    -262.353    1007.609
  H     -230.188    -261.519    1008.085
  P     -230.624    -258.696    1011.491
  C     -231.605    -257.755    1009.309
  O     -231.884    -258.209    1010.634
  O     -229.422    -257.789    1010.922
  O     -230.753    -258.509    1012.977
  H     -229.362    -256.953    1011.421
  H     -232.442    -257.180    1008.946
  H     -231.439    -258.630    1008.658
  H     -230.707    -257.126    1009.298
  H     -225.987    -263.098    1005.428
  H     -226.874    -262.065    1004.332
  H     -227.732    -263.031    1005.509

 3  4  5  6  7  8  9  10  11  12  23  26  30  31 0
 6-311+G(2d,p)
 ****
 33  35  36  37  38 0
 6-311+G(2d,p)
 ****
 1  2  13  14  15  16  17  18  19  20  21  22  24  25 0
 3-21G
 ****
 27  28  29  32  34  39  40  41  42  43  44  45  46  47  48  49 0
 3-21G
 ****


