%nproc=1
%NoSave
%Mem=1900MB
#P OB98/GEN NMR

erre ene a

0 1
  C       98.890     339.656      39.473
  O       99.067     339.333      40.839
  H       99.055     340.726      39.343
  H       97.868     339.413      39.164
  H       99.609     339.109      38.856
  P       99.049     337.773      41.222
  C      101.585     337.728      41.907
  O      100.562     337.267      41.044
  C      102.961     337.337      41.365
  O      103.177     338.017      40.106
  C      104.116     337.708      42.298
  O      105.122     336.694      42.198
  C      104.647     339.000      41.704
  O      106.003     339.246      42.071
  C      104.411     338.758      40.201
  N      104.355     340.000      39.438
  C      105.562     340.684      39.260
  O      106.603     340.243      39.745
  N      105.558     341.873      38.569
  C      104.439     342.373      38.156
  N      104.499     343.562      37.501
  C      103.134     341.706      38.359
  C      103.167     340.535      38.989
  O       98.284     337.139      39.965
  O       98.425     337.470      42.543
  H      106.560     338.535      41.682
  H       98.588     337.486      39.111
  H      102.225     342.166      38.002
  H      102.254     339.976      39.174
  H      105.207     338.130      39.786
  H      104.044     339.849      42.046
  H      103.806     337.817      43.337
  H      102.956     336.262      41.154
  H      105.410     343.993      37.404
  H      101.454     337.310      42.910
  H      103.689     344.068      37.182
  H      101.500     338.814      41.981
  P      105.024     335.399      43.130
  C      104.985     333.745      41.142
  O      104.327     334.205      42.318
  O      104.496     335.626      44.509
  O      106.560     334.903      43.203
  H      106.736     334.619      44.118
  H      104.416     332.953      40.702
  H      105.960     333.386      41.396
  H      105.073     334.551      40.444

 6  7  8  9  10  11  12  13  14  15  16  26  30  31  32  33  35 0
 6-311+G(2d,p)
 ****
 37  38 0
 6-311+G(2d,p)
 ****
 1  2  3  4  5  17  18  19  20  21  22  23  24  25 0
 3-21G
 ****
 27  28  29  34  36  39  40  41  42  43  44  45  46 0
 3-21G
 ****


