%nproc=1
%NoSave
%Mem=1900MB
#P OB98/GEN NMR

erre ene a

0 1
  C     -442.193     -79.020     389.333
  O     -441.387     -77.881     389.553
  P     -441.291     -77.214     391.008
  C     -442.602     -75.246     389.974
  O     -442.492     -76.152     391.072
  C     -444.059     -75.092     389.545
  O     -444.760     -76.350     389.664
  C     -444.854     -74.095     390.374
  O     -444.532     -72.764     389.999
  C     -446.278     -74.516     390.058
  O     -446.726     -73.951     388.818
  C     -446.143     -76.054     389.943
  N     -446.618     -76.743     391.138
  C     -447.974     -77.079     391.153
  O     -448.709     -76.760     390.215
  N     -448.483     -77.723     392.259
  C     -447.708     -77.984     393.263
  N     -448.268     -78.610     394.329
  C     -446.279     -77.625     393.297
  C     -445.803     -77.009     392.214
  O     -439.940     -76.684     391.375
  O     -441.794     -78.385     391.980
  H     -447.497     -74.494     388.534
  H     -441.111     -79.091     392.079
  H     -445.670     -77.852     394.163
  H     -444.765     -76.702     392.157
  H     -446.718     -76.422     389.082
  H     -446.987     -74.194     390.830
  H     -444.653     -74.252     391.440
  H     -444.070     -74.795     388.484
  H     -449.261     -78.819     394.276
  H     -442.014     -75.644     389.141
  H     -447.767     -78.831     395.176
  H     -442.177     -74.278     390.260
  P     -443.660     -71.850     390.978
  C     -445.668     -70.281     391.259
  O     -444.663     -71.036     391.916
  O     -442.603     -71.028     390.312
  O     -442.996     -72.904     391.987
  H     -442.055     -72.679     392.108
  H     -446.463     -70.060     391.973
  H     -446.093     -70.837     390.420
  H     -445.244     -69.342     390.902
  H     -442.125     -79.312     388.306
  H     -443.210     -78.789     389.571
  H     -441.855     -79.822     389.955

 3  4  5  6  7  8  9  10  11  12  13  23  27  28  29  30  32 0
 6-311+G(2d,p)
 ****
 34  35 0
 6-311+G(2d,p)
 ****
 1  2  14  15  16  17  18  19  20  21  22  24  25  26 0
 3-21G
 ****
 31  33  36  37  38  39  40  41  42  43  44  45  46 0
 3-21G
 ****


