%nproc=1
%NoSave
%Mem=1900MB
#P OB98/GEN NMR

erre ene a

0 1
  C     -100.120     230.764      30.610
  O      -98.746     230.899      30.297
  P      -98.357     231.228      28.777
  C      -98.746     230.016      26.502
  O      -98.649     229.910      27.914
  C      -97.988     228.863      25.843
  O      -96.565     229.039      25.999
  C      -98.303     227.501      26.452
  O      -99.537     226.994      25.981
  C      -97.098     226.681      26.009
  O      -97.277     226.186      24.671
  C      -95.963     227.728      26.054
  N      -95.105     227.572      27.223
  C      -94.223     226.493      27.189
  O      -94.175     225.698      26.251
  N      -93.425     226.337      28.291
  C      -93.460     227.103      29.423
  O      -92.759     226.878      30.403
  C      -94.433     228.207      29.410
  C      -95.200     228.386      28.336
  O      -96.760     231.322      28.804
  O      -98.977     232.471      28.234
  H      -96.528     225.582      24.496
  H      -96.458     232.008      28.176
  H      -92.764     225.578      28.277
  H      -94.486     228.835      30.291
  H      -95.931     229.186      28.313
  H      -95.341     227.643      25.155
  H      -96.930     225.812      26.652
  H      -98.301     227.574      27.549
  H      -98.215     228.862      24.769
  H      -98.319     230.971      26.181
  H      -99.801     229.997      26.214
  P     -100.501     226.301      27.066
  C     -100.179     224.257      28.661
  O      -99.697     225.009      27.566
  O     -101.658     225.733      26.115
  O     -100.967     227.245      28.120
  H     -101.321     225.471      25.239
  H     -101.274     224.222      28.674
  H      -99.817     224.698      29.591
  H      -99.798     223.234      28.581
  H     -100.229     230.547      31.652
  H     -100.540     229.967      30.034
  H     -100.629     231.677      30.381

 3  4  5  6  7  8  9  10  11  12  13  23  28  29  30  31  32 0
 6-311+G(2d,p)
 ****
 33  34 0
 6-311+G(2d,p)
 ****
 1  2  14  15  16  17  18  19  20  21  22  24  25  26 0
 3-21G
 ****
 27  35  36  37  38  39  40  41  42  43  44  45 0
 3-21G
 ****


