%nproc=1
%NoSave
%Mem=1900MB
#P OB98/GEN NMR

erre ene a

0 1
  C       87.214    -175.836    -139.828
  O       86.554    -176.665    -138.885
  P       86.404    -176.115    -137.384
  C       87.951    -177.047    -135.512
  O       87.846    -176.273    -136.699
  C       88.123    -178.522    -135.857
  O       89.146    -178.697    -136.859
  C       88.557    -179.392    -134.685
  O       87.470    -179.751    -133.848
  C       89.094    -180.615    -135.411
  O       88.005    -181.466    -135.815
  C       89.766    -179.989    -136.640
  N       94.275    -182.238    -137.087
  C       93.037    -182.647    -137.538
  N       92.985    -183.854    -138.139
  N       91.946    -181.937    -137.413
  C       92.148    -180.754    -136.780
  C       93.328    -180.238    -136.292
  C       94.524    -181.040    -136.427
  O       95.639    -180.756    -136.003
  N       93.139    -179.007    -135.726
  C       91.849    -178.772    -135.869
  N       91.198    -179.821    -136.465
  O       85.530    -177.247    -136.663
  O       85.780    -174.767    -137.274
  H       87.434    -180.931    -136.402
  H       85.151    -176.896    -135.835
  H       95.087    -182.825    -137.203
  H       91.344    -177.871    -135.545
  H       89.604    -180.586    -137.543
  H       89.758    -181.222    -134.788
  H       93.777    -184.477    -138.211
  H       89.368    -178.921    -134.117
  H       92.079    -184.208    -138.424
  H       87.174    -178.887    -136.276
  H       87.048    -176.913    -134.913
  H       88.807    -176.693    -134.926
  P       87.832    -180.217    -132.354
  C       87.781    -182.784    -131.957
  O       88.470    -181.679    -132.507
  O       86.396    -180.489    -131.703
  O       88.630    -179.227    -131.574
  H       86.434    -180.375    -130.735
  H       88.202    -183.703    -132.375
  H       86.715    -182.747    -132.203
  H       87.908    -182.800    -130.872
  H       87.240    -176.327    -140.778
  H       88.214    -175.646    -139.497
  H       86.686    -174.910    -139.920

 3  4  5  6  7  8  9  10  11  12  23  26  30  31 0
 6-311+G(2d,p)
 ****
 33  35  36  37  38 0
 6-311+G(2d,p)
 ****
 1  2  13  14  15  16  17  18  19  20  21  22  24  25 0
 3-21G
 ****
 27  28  29  32  34  39  40  41  42  43  44  45  46  47  48  49 0
 3-21G
 ****


