%nproc=1
%NoSave
%Mem=1900MB
#P OB98/GEN NMR

erre ene a

0 1
  C     -899.011     305.622     141.579
  O     -898.341     305.274     142.783
  P     -898.151     303.704     143.104
  C     -895.541     303.628     143.029
  O     -896.771     303.255     142.427
  C     -894.701     302.375     143.308
  O     -894.581     301.586     142.109
  C     -893.271     302.698     143.737
  O     -893.201     303.065     145.111
  C     -892.561     301.381     143.430
  O     -892.731     300.439     144.501
  C     -893.301     300.909     142.162
  N     -892.521     301.120     140.939
  C     -892.851     300.340     139.849
  O     -893.741     299.486     139.885
  N     -892.111     300.535     138.713
  C     -891.041     301.380     138.592
  O     -890.371     301.460     137.564
  C     -890.701     302.161     139.791
  C     -891.441     301.992     140.901
  O     -899.271     302.994     142.204
  O     -898.291     303.357     144.541
  H     -893.651     300.106     144.425
  H     -899.631     302.219     142.673
  H     -892.351     299.996     137.908
  H     -889.861     302.844     139.732
  H     -891.211     302.560     141.795
  H     -893.521     299.845     142.236
  H     -891.481     301.524     143.294
  H     -892.851     303.490     143.095
  H     -895.211     301.786     144.069
  H     -895.751     304.142     143.976
  H     -895.011     304.320     142.377
  P     -893.241     304.632     145.443
  C     -895.761     304.567     146.145
  O     -894.771     305.059     145.267
  O     -892.481     305.224     144.156
  O     -892.611     304.964     146.758
  H     -892.661     304.694     143.355
  H     -895.371     304.448     147.156
  H     -896.111     303.585     145.772
  H     -896.591     305.272     146.169
  H     -899.065     306.687     141.496
  H     -900.000     305.214     141.591
  H     -898.472     305.226     140.744

 3  4  5  6  7  8  9  10  11  12  13  23  28  29  30  31  32 0
 6-311+G(2d,p)
 ****
 33  34 0
 6-311+G(2d,p)
 ****
 1  2  14  15  16  17  18  19  20  21  22  24  25  26 0
 3-21G
 ****
 27  35  36  37  38  39  40  41  42  43  44  45 0
 3-21G
 ****


