%nproc=1
%NoSave
%Mem=1900MB
#P OB98/GEN NMR

erre ene a

0 1
  C       -8.802      20.181      67.956
  O       -9.782      20.814      67.153
  P      -11.042      21.467      67.906
  C      -12.706      20.555      69.689
  O      -11.847      20.264      68.593
  C      -13.079      19.267      70.419
  O      -11.900      18.652      70.975
  C      -14.029      19.458      71.594
  O      -15.357      19.680      71.148
  C      -13.818      18.145      72.340
  O      -14.557      17.091      71.703
  C      -12.308      17.915      72.159
  N      -10.087      16.521      76.555
  C      -10.829      15.831      75.662
  N      -11.404      16.277      74.526
  C      -11.144      17.581      74.344
  C      -10.424      18.419      75.178
  C       -9.876      17.839      76.333
  N       -9.123      18.548      77.244
  N      -10.390      19.702      74.675
  C      -11.069      19.637      73.549
  N      -11.533      18.375      73.298
  O      -11.995      21.911      66.703
  O      -10.709      22.612      68.811
  H      -14.203      16.244      72.039
  H      -12.480      22.730      66.926
  H      -10.979      14.778      75.887
  H      -11.246      20.471      72.883
  H      -12.060      16.861      71.995
  H      -14.141      18.188      73.385
  H      -13.703      20.300      72.217
  H      -13.515      18.576      69.686
  H      -13.620      21.030      69.320
  H       -8.895      18.093      78.114
  H       -9.088      19.555      77.149
  H      -12.199      21.254      70.360
  P      -16.362      20.408      72.166
  C      -16.800      19.996      74.663
  O      -16.409      19.417      73.431
  O      -17.775      20.149      71.467
  O      -16.033      21.829      72.465
  H      -17.890      19.217      71.210
  H      -16.841      19.208      75.420
  H      -17.789      20.453      74.571
  H      -16.068      20.747      74.974
  H       -8.025      19.793      67.331
  H       -9.253      19.380      68.504
  H       -8.388      20.892      68.640

 3  4  5  6  7  8  9  10  11  12  22  25  29  30  31  32 0
 6-311+G(2d,p)
 ****
 33  36  37 0
 6-311+G(2d,p)
 ****
 1  2  13  14  15  16  17  18  19  20  21  23  24  26 0
 3-21G
 ****
 27  28  34  35  38  39  40  41  42  43  44  45  46  47  48 0
 3-21G
 ****


