%nproc=1
%NoSave
%Mem=1900MB
#P OB98/GEN NMR

erre ene a

0 1
  C       28.940     -92.071     232.898
  O       29.905     -92.884     232.257
  H       28.675     -92.532     233.854
  H       28.040     -92.004     232.280
  H       29.334     -91.070     233.090
  P       30.666     -92.311     230.968
  C       32.681     -91.369     232.274
  O       32.232     -92.320     231.318
  C       34.116     -91.675     232.710
  O       34.124     -92.956     233.413
  C       35.118     -91.789     231.541
  O       36.390     -91.331     232.023
  C       35.128     -93.288     231.311
  O       36.205     -93.686     230.503
  C       35.117     -93.777     232.761
  N       34.807     -95.195     232.896
  C       35.880     -96.078     232.983
  O       37.058     -95.727     232.976
  N       35.550     -97.405     233.072
  C       34.287     -97.920     233.075
  O       34.049     -99.118     233.178
  C       33.195     -96.938     232.949
  C       33.501     -95.643     232.869
  O       30.146     -91.022     230.427
  O       30.534     -93.495     229.897
  H       29.792     -93.308     229.291
  H       36.255     -93.127     229.699
  H       36.316     -98.059     233.137
  H       32.183     -97.318     232.928
  H       32.724     -94.890     232.773
  H       36.075     -93.569     233.248
  H       34.217     -93.596     230.790
  H       34.823     -91.199     230.669
  H       34.438     -90.917     233.434
  H       32.012     -91.410     233.140
  H       32.631     -90.364     231.833
  P       37.445     -90.541     231.109
  C       37.411     -88.146     232.068
  O       38.127     -89.370     231.975
  O       36.878     -90.063     229.811
  O       38.644     -91.572     230.852
  H       38.997     -91.439     229.949
  H       37.965     -87.453     232.666
  H       36.457     -88.324     232.520
  H       37.271     -87.739     231.088

 6  7  8  9  10  11  12  13  14  15  16  27  31  32  33  34  35 0
 6-311+G(2d,p)
 ****
 36  37 0
 6-311+G(2d,p)
 ****
 1  2  3  4  5  17  18  19  20  21  22  23  24  25 0
 3-21G
 ****
 26  28  29  30  38  39  40  41  42  43  44  45 0
 3-21G
 ****


