%nproc=1
%NoSave
%Mem=1900MB
#P OB98/GEN NMR

erre ene a

0 1
  C      415.814     351.777     284.134
  O      414.807     352.729     284.478
  P      413.434     352.167     285.092
  C      412.564     354.170     286.555
  O      413.191     352.901     286.496
  C      412.945     354.917     287.842
  O      412.277     354.270     288.951
  C      414.422     354.907     288.199
  O      414.685     355.954     289.136
  C      414.570     353.569     288.889
  O      415.769     353.489     289.672
  C      413.243     353.456     289.676
  N      412.747     352.071     289.812
  C      413.303     351.254     290.785
  O      414.184     351.610     291.564
  N      412.837     349.976     290.844
  C      411.850     349.439     290.057
  O      411.534     348.257     290.084
  C      411.198     350.385     289.136
  C      411.667     351.633     289.046
  O      413.792     350.651     285.498
  O      412.280     352.243     284.153
  H      415.802     352.573     290.025
  H      413.384     350.039     284.852
  H      413.272     349.348     291.500
  H      410.362     350.021     288.542
  H      411.205     352.336     288.354
  H      413.356     353.860     290.699
  H      414.632     352.770     288.142
  H      415.095     354.999     287.338
  H      412.562     355.939     287.788
  H      411.484     354.044     286.491
  H      412.866     354.770     285.688
  P      415.526     357.225     288.620
  C      413.519     358.765     289.103
  O      414.459     358.311     288.148
  O      416.641     356.927     287.680
  O      416.070     357.857     289.997
  H      416.827     358.435     289.803
  H      413.230     359.790     288.864
  H      413.944     358.731     290.113
  H      412.629     358.123     289.068
  H      416.668     352.288     283.740
  H      415.430     351.102     283.398
  H      416.099     351.228     285.007

 3  4  5  6  7  8  9  10  11  12  13  23  28  29  30  31  32 0
 6-311+G(2d,p)
 ****
 33  34 0
 6-311+G(2d,p)
 ****
 1  2  14  15  16  17  18  19  20  21  22  24  25  26  27 0
 3-21G
 ****
 35  36  37  38  39  40  41  42  43  44  45 0
 3-21G
 ****


