%nproc=1
%NoSave
%Mem=1900MB
#P OB98/GEN NMR

erre ene a

0 1
  C     -335.712      28.866    -103.481
  O     -335.306      28.284    -104.705
  H     -335.634      29.955    -103.565
  H     -335.064      28.528    -102.671
  H     -336.753      28.603    -103.263
  P     -335.343      26.681    -104.790
  C     -336.120      26.629    -107.267
  O     -335.089      26.312    -106.338
  C     -335.740      26.133    -108.666
  O     -334.626      26.934    -109.161
  C     -335.303      24.663    -108.711
  O     -335.791      24.073    -109.918
  C     -333.789      24.756    -108.783
  O     -333.205      23.585    -109.347
  C     -333.624      26.015    -109.628
  N     -329.219      26.543    -112.002
  C     -330.393      25.949    -112.417
  N     -330.404      25.413    -113.659
  N     -331.472      25.891    -111.678
  C     -331.332      26.494    -110.477
  C     -330.217      27.101    -109.942
  C     -329.024      27.142    -110.761
  O     -327.948      27.627    -110.441
  N     -330.467      27.561    -108.670
  C     -331.726      27.228    -108.438
  N     -332.292      26.584    -109.504
  O     -336.892      26.330    -104.577
  O     -334.464      25.964    -103.823
  H     -332.321      23.822    -109.685
  H     -336.993      25.459    -104.148
  H     -328.412      26.554    -112.605
  H     -332.265      27.431    -107.521
  H     -333.793      25.827    -110.696
  H     -333.373      24.898    -107.776
  H     -329.620      25.448    -114.298
  H     -335.647      24.078    -107.856
  H     -331.261      24.980    -113.990
  H     -336.584      26.316    -109.339
  H     -336.259      27.715    -107.288
  H     -337.051      26.152    -106.947
  P     -336.720      22.773    -109.787
  C     -337.913      23.049    -112.079
  O     -337.083      22.243    -111.264
  O     -338.107      23.377    -109.265
  O     -336.188      21.737    -108.850
  H     -338.246      23.133    -108.333
  H     -338.063      22.567    -113.023
  H     -337.446      23.999    -112.234
  H     -338.858      23.190    -111.597

 6  7  8  9  10  11  12  13  14  15  26  29  33  34 0
 6-311+G(2d,p)
 ****
 36  38  39  40  41 0
 6-311+G(2d,p)
 ****
 1  2  3  4  5  16  17  18  19  20  21  22  23  24  25 0
 3-21G
 ****
 27  28  30  31  32  35  37  42  43  44  45  46  47 0
 3-21G
 ****
 48  49 0
 3-21G
 ****


