%nproc=1
%NoSave
%Mem=1900MB
#P OB98/GEN NMR

erre ene a

0 1
  C      636.128     296.280     537.728
  O      635.758     295.675     538.950
  H      637.070     296.814     537.874
  H      635.365     296.999     537.417
  H      636.271     295.524     536.949
  P      634.457     294.738     538.989
  C      635.748     292.560     539.436
  O      634.927     293.275     538.525
  C      635.927     291.111     538.976
  O      634.638     290.448     539.030
  C      636.469     290.981     537.553
  O      637.362     289.872     537.508
  C      635.229     290.674     536.732
  O      635.534     289.944     535.542
  C      634.384     289.882     537.729
  N      630.801     288.206     534.583
  C      632.137     287.858     534.684
  N      632.596     286.944     533.802
  N      632.953     288.361     535.575
  C      632.354     289.254     536.404
  C      631.046     289.681     536.403
  C      630.161     289.121     535.409
  O      628.976     289.402     535.262
  N      630.832     290.614     537.386
  C      632.004     290.754     537.976
  N      632.965     289.958     537.410
  O      633.266     295.268     538.257
  O      634.159     294.552     540.549
  H      634.738     289.978     534.971
  H      633.439     295.144     540.837
  H      630.225     287.791     533.875
  H      632.215     291.415     538.805
  H      634.649     288.816     537.753
  H      634.730     291.607     536.447
  H      632.025     286.500     533.101
  H      636.976     291.888     537.200
  H      633.566     286.657     533.872
  H      636.581     290.603     539.696
  H      635.267     292.582     540.421
  H      636.722     293.054     539.512
  P      638.943     290.151     537.596
  C      639.189     289.859     540.145
  O      639.259     290.765     539.047
  O      639.534     290.893     536.446
  O      639.555     288.670     537.709
  H      640.445     288.671     537.304
  H      639.417     290.379     541.052
  H      639.895     289.068     540.000
  H      638.202     289.450     540.207

 6  7  8  9  10  11  12  13  14  15  26  29  33  34 0
 6-311+G(2d,p)
 ****
 36  38  39  40  41 0
 6-311+G(2d,p)
 ****
 1  2  3  4  5  16  17  18  19  20  21  22  23  24  25 0
 3-21G
 ****
 27  28  30  31  32  35  37  42  43  44  45  46  47 0
 3-21G
 ****
 48  49 0
 3-21G
 ****


