%nproc=1
%NoSave
%Mem=1900MB
#P OB98/GEN NMR

erre ene a

0 1
  C       67.371     -13.671    -929.405
  O       67.770     -13.348    -928.086
  H       67.366     -14.758    -929.539
  H       66.356     -13.296    -929.569
  H       68.039     -13.200    -930.126
  P       69.245     -13.800    -927.642
  C       70.409     -11.502    -927.995
  O       69.953     -12.481    -927.068
  C       71.591     -10.736    -927.402
  O       71.135      -9.866    -926.350
  C       72.658     -11.629    -926.771
  O       73.539     -12.171    -927.738
  C       73.366     -10.619    -925.881
  O       74.232      -9.790    -926.681
  C       72.189      -9.795    -925.341
  N       71.749      -8.836    -920.334
  C       72.354      -8.162    -921.332
  N       72.431      -8.480    -922.642
  C       71.793      -9.644    -922.878
  C       71.136     -10.446    -921.962
  C       71.122      -9.996    -920.630
  N       70.520     -10.690    -919.602
  N       70.635     -11.580    -922.569
  C       70.951     -11.442    -923.840
  N       71.668     -10.293    -924.076
  O       69.997     -14.040    -929.036
  O       69.312     -14.986    -926.743
  H       74.948     -10.371    -927.008
  H       70.775     -14.619    -928.900
  H       72.846      -7.230    -921.045
  H       70.698     -12.143    -924.631
  H       72.445      -8.743    -925.202
  H       73.986     -11.094    -925.109
  H       72.204     -12.418    -926.143
  H       72.024     -10.109    -928.195
  H       69.593     -10.803    -928.207
  H       70.723     -10.382    -918.670
  H       70.187     -11.631    -919.784
  H       70.701     -11.994    -928.931
  P       74.477     -13.393    -927.283
  C       73.894     -15.250    -929.013
  O       74.796     -14.221    -928.613
  O       73.464     -14.354    -926.489
  O       75.651     -13.004    -926.455
  H       73.932     -14.892    -925.828
  H       74.248     -15.704    -929.915
  H       72.925     -14.829    -929.182
  H       73.832     -15.989    -928.242

 6  7  8  9  10  11  12  13  14  15  25  28  32  33  34  35 0
 6-311+G(2d,p)
 ****
 36  39  40 0
 6-311+G(2d,p)
 ****
 1  2  3  4  5  16  17  18  19  20  21  22  23  24 0
 3-21G
 ****
 26  27  29  30  31  37  38  41  42  43  44  45  46  47 0
 3-21G
 ****
 48 0
 3-21G
 ****


