%nproc=1
%NoSave
%Mem=1900MB
#P OB98/GEN NMR

erre ene a

0 1
  C      280.288     141.246     245.993
  O      280.739     141.352     247.329
  H      281.122     141.474     245.324
  H      279.481     141.960     245.806
  H      279.944     140.227     245.792
  P      279.649     141.112     248.482
  C      278.984     143.621     248.636
  O      278.568     142.291     248.347
  C      277.929     144.312     249.499
  O      276.768     144.628     248.695
  C      277.410     143.451     250.645
  O      278.308     143.419     251.742
  C      276.107     144.170     250.975
  O      276.329     145.290     251.844
  C      275.625     144.640     249.579
  N      274.532     143.820     249.072
  C      273.273     144.423     249.072
  O      273.079     145.573     249.477
  N      272.239     143.644     248.633
  C      272.327     142.339     248.239
  O      271.345     141.678     247.926
  C      273.680     141.763     248.242
  C      274.704     142.513     248.661
  O      280.448     141.479     249.819
  O      279.070     139.735     248.528
  H      280.716     140.660     250.281
  H      275.462     145.736     251.944
  H      271.317     144.059     248.637
  H      273.790     140.728     247.926
  H      275.710     142.099     248.698
  H      275.278     145.679     249.631
  H      275.404     143.509     251.480
  H      277.179     142.440     250.292
  H      278.350     145.253     249.878
  H      279.097     144.183     247.699
  H      279.950     143.589     249.151
  P      278.514     142.033     252.524
  C      276.842     142.778     254.415
  O      277.205     141.824     253.428
  O      279.654     142.431     253.570
  O      278.852     140.884     251.634
  H      279.569     143.346     253.895
  H      275.946     142.460     254.906
  H      276.676     143.727     253.950
  H      277.630     142.866     255.133

 6  7  8  9  10  11  12  13  14  15  16  27  31  32  33  34  35 0
 6-311+G(2d,p)
 ****
 36  37 0
 6-311+G(2d,p)
 ****
 1  2  3  4  5  17  18  19  20  21  22  23  24  25 0
 3-21G
 ****
 26  28  29  30  38  39  40  41  42  43  44  45 0
 3-21G
 ****


