%nproc=1
%NoSave
%Mem=1900MB
#P OB98/GEN NMR

erre ene a

0 1
  C       17.534      73.752     594.586
  O       17.848      75.029     595.106
  H       18.436      73.134     594.601
  H       17.186      73.840     593.553
  H       16.763      73.269     595.196
  P       16.637      76.067     595.255
  C       17.344      78.415     594.407
  O       17.299      77.508     595.505
  C       18.196      79.637     594.752
  O       17.578      80.347     595.861
  C       19.640      79.301     595.176
  O       20.493      80.349     594.694
  C       19.578      79.400     596.688
  O       20.858      79.618     597.277
  C       18.601      80.566     596.847
  N       17.875      83.658     600.756
  C       18.416      83.899     599.506
  N       18.829      85.162     599.258
  N       18.536      82.983     598.580
  C       18.049      81.783     598.954
  C       17.498      81.404     600.154
  C       17.394      82.421     601.180
  O       16.943      82.262     602.310
  N       17.154      80.070     600.151
  C       17.502      79.649     598.944
  N       18.048      80.645     598.187
  O       16.018      75.684     596.684
  O       15.606      76.016     594.171
  H       21.476      78.931     596.927
  H       15.286      75.049     596.575
  H       17.818      84.393     601.428
  H       17.382      78.634     598.590
  H       19.071      81.535     596.644
  H       19.159      78.478     597.114
  H       18.725      85.933     599.908
  H       20.000      78.335     594.817
  H       19.187      85.375     598.333
  H       18.191      80.317     593.889
  H       16.322      78.740     594.180
  H       17.758      77.901     593.534
  P       21.652      79.954     593.654
  C       23.714      81.383     594.384
  O       22.620      81.232     593.483
  O       20.876      79.914     592.251
  O       22.333      78.662     593.951
  H       21.319      79.292     591.647
  H       24.256      82.273     594.141
  H       24.363      80.536     594.302
  H       23.344      81.453     595.386

 6  7  8  9  10  11  12  13  14  15  26  29  33  34 0
 6-311+G(2d,p)
 ****
 36  38  39  40  41 0
 6-311+G(2d,p)
 ****
 1  2  3  4  5  16  17  18  19  20  21  22  23  24  25 0
 3-21G
 ****
 27  28  30  31  32  35  37  42  43  44  45  46  47 0
 3-21G
 ****
 48  49 0
 3-21G
 ****


