%nproc=1
%NoSave
%Mem=1900MB
#P OB98/GEN NMR

erre ene a

0 1
  C      390.978     247.992    -385.859
  O      390.709     248.417    -384.538
  H      391.669     247.145    -385.821
  H      391.446     248.796    -386.435
  H      390.055     247.668    -386.350
  P      389.778     249.701    -384.323
  C      387.387     248.864    -383.795
  O      388.308     249.281    -384.799
  C      386.012     248.598    -384.405
  O      385.501     249.791    -385.031
  C      386.007     247.524    -385.489
  O      386.112     246.238    -384.915
  C      384.688     247.831    -386.175
  O      383.581     247.311    -385.421
  C      384.685     249.379    -386.152
  N      385.163     249.983    -387.392
  C      384.296     249.906    -388.487
  O      383.206     249.341    -388.380
  N      384.700     250.454    -389.679
  C      385.840     251.063    -389.764
  N      386.177     251.595    -390.967
  C      386.768     251.197    -388.624
  C      386.375     250.630    -387.484
  O      390.277     250.985    -384.914
  O      389.626     249.804    -382.733
  H      383.496     247.889    -384.638
  H      390.296     250.412    -382.365
  H      387.702     251.724    -388.733
  H      386.996     250.683    -386.596
  H      383.672     249.757    -385.960
  H      384.628     247.392    -387.173
  H      386.818     247.707    -386.203
  H      385.326     248.335    -383.587
  H      385.498     251.492    -391.718
  H      387.322     249.676    -383.061
  H      386.955     252.221    -391.106
  H      387.753     247.966    -383.283
  P      386.011     244.912    -385.812
  C      388.313     243.969    -385.156
  O      387.525     244.529    -386.195
  O      385.071     244.995    -386.965
  O      385.627     243.772    -384.753
  H      384.665     243.829    -384.522
  H      389.294     243.757    -385.527
  H      387.858     243.064    -384.812
  H      388.381     244.664    -384.346

 6  7  8  9  10  11  12  13  14  15  16  26  30  31  32  33  35 0
 6-311+G(2d,p)
 ****
 37  38 0
 6-311+G(2d,p)
 ****
 1  2  3  4  5  17  18  19  20  21  22  23  24  25 0
 3-21G
 ****
 27  28  29  34  36  39  40  41  42  43  44  45  46 0
 3-21G
 ****


