%nproc=1
%NoSave
%Mem=1900MB
#P OB98/GEN NMR

erre ene a

0 1
  C      961.864    -893.220    -584.448
  O      962.012    -894.080    -583.331
  H      961.297    -893.730    -585.237
  H      961.311    -892.330    -584.139
  H      962.840    -892.920    -584.829
  P      962.782    -895.460    -583.597
  C      965.009    -894.920    -582.380
  O      964.357    -895.110    -583.626
  C      966.512    -894.780    -582.590
  O      967.034    -896.080    -583.002
  C      966.908    -893.760    -583.666
  O      967.902    -892.860    -583.162
  C      967.522    -894.590    -584.779
  O      968.586    -893.920    -585.441
  C      967.997    -895.830    -584.034
  N      971.284    -898.680    -586.691
  C      971.464    -897.870    -585.629
  N      970.536    -897.210    -584.908
  C      969.299    -897.500    -585.356
  C      968.952    -898.320    -586.415
  C      970.019    -898.920    -587.112
  N      969.833    -899.710    -588.225
  N      967.581    -898.360    -586.583
  C      967.106    -897.530    -585.670
  N      968.113    -896.980    -584.921
  O      962.439    -895.790    -585.127
  O      962.383    -896.580    -582.695
  H      968.900    -894.500    -586.153
  H      961.960    -896.630    -585.168
  H      972.503    -897.710    -585.327
  H      966.063    -897.260    -585.550
  H      968.969    -895.670    -583.555
  H      966.743    -894.830    -585.504
  H      966.047    -893.180    -584.030
  H      966.975    -894.540    -581.633
  H      964.812    -895.790    -581.730
  H      970.657    -900.000    -588.732
  H      968.903    -899.800    -588.604
  H      964.600    -894.020    -581.898
  P      967.454    -891.900    -581.951
  C      968.987    -893.040    -580.187
  O      967.657    -892.700    -580.566
  O      965.860    -891.830    -582.118
  O      968.067    -890.550    -581.990
  H      965.577    -890.900    -582.203
  H      968.969    -893.564    -579.254
  H      969.568    -892.147    -580.083
  H      969.424    -893.664    -580.939

 6  7  8  9  10  11  12  13  14  15  25  28  32  33  34  35 0
 6-311+G(2d,p)
 ****
 36  39  40 0
 6-311+G(2d,p)
 ****
 1  2  3  4  5  16  17  18  19  20  21  22  23  24 0
 3-21G
 ****
 26  27  29  30  31  37  38  41  42  43  44  45  46  47  48 0
 3-21G
 ****


