%nproc=1
%NoSave
%Mem=1900MB
#P OB98/GEN NMR

erre ene a

0 1
  C      225.034     146.570     -52.124
  O      224.250     145.461     -52.577
  P      224.849     144.353     -53.571
  C      224.991     145.510     -55.860
  O      225.723     145.049     -54.729
  C      225.615     146.749     -56.519
  O      226.906     146.432     -57.107
  C      224.770     147.386     -57.629
  O      225.059     148.785     -57.592
  C      225.355     146.752     -58.879
  O      225.057     147.465     -60.070
  C      226.836     146.734     -58.513
  N      228.366     145.374     -63.206
  C      227.785     146.501     -62.745
  N      227.442     146.805     -61.477
  C      227.794     145.820     -60.636
  C      228.401     144.617     -60.960
  C      228.680     144.400     -62.321
  N      229.229     143.235     -62.805
  N      228.581     143.839     -59.833
  C      228.079     144.558     -58.849
  N      227.595     145.765     -59.282
  O      223.838     143.376     -54.082
  O      225.948     143.587     -52.692
  H      225.421     148.365     -59.986
  H      225.845     142.624     -52.818
  H      227.559     147.257     -63.493
  H      228.019     144.248     -57.813
  H      227.296     147.719     -58.666
  H      224.953     145.738     -58.991
  H      223.698     147.205     -57.521
  H      225.809     147.480     -55.724
  H      223.970     145.747     -55.540
  H      229.305     143.137     -63.805
  H      229.352     142.453     -62.179
  H      224.931     144.698     -56.592
  P      223.906     149.879     -57.405
  C      223.960     150.903     -59.749
  O      223.236     150.092     -58.842
  O      224.338     151.136     -56.725
  O      222.765     149.125     -56.573
  H      222.174     149.782     -56.158
  H      223.840     151.955     -59.475
  H      223.567     150.751     -60.757
  H      225.023     150.645     -59.741
  H      224.444     147.182     -51.474
  H      225.353     147.149     -52.966
  H      225.890     146.209     -51.594

 3  4  5  6  7  8  9  10  11  12  22  25  29  30  31  32 0
 6-311+G(2d,p)
 ****
 33  36  37 0
 6-311+G(2d,p)
 ****
 1  2  13  14  15  16  17  18  19  20  21  23  24  26 0
 3-21G
 ****
 27  28  34  35  38  39  40  41  42  43  44  45  46  47  48 0
 3-21G
 ****


