%nproc=1
%NoSave
%Mem=1900MB
#P OB98/GEN NMR

erre ene a

0 1
  C       -6.563    -831.636    1253.124
  O       -6.301    -831.688    1251.739
  P       -7.508    -831.814    1250.689
  C       -7.522    -829.273    1250.290
  O       -8.277    -830.408    1250.703
  C       -8.350    -828.424    1249.312
  O       -8.578    -829.139    1248.075
  C       -9.749    -828.076    1249.814
  O       -9.837    -827.237    1250.938
  C      -10.421    -827.625    1248.534
  O      -10.085    -826.284    1248.220
  C       -9.780    -828.585    1247.486
  N      -10.710    -829.625    1247.067
  C      -11.849    -829.175    1246.411
  O      -12.088    -828.010    1246.172
  N      -12.749    -830.161    1246.023
  C      -12.624    -831.498    1246.295
  O      -13.481    -832.315    1245.972
  C      -11.405    -831.902    1247.004
  C      -10.507    -830.970    1247.366
  O       -8.381    -833.012    1250.856
  O       -6.758    -831.760    1249.274
  H      -10.496    -826.052    1247.371
  H       -6.238    -830.948    1249.103
  H      -13.585    -829.869    1245.566
  H      -11.281    -832.959    1247.222
  H       -9.623    -831.238    1247.897
  H       -9.464    -828.025    1246.598
  H      -11.497    -827.676    1248.601
  H      -10.243    -829.025    1250.120
  H       -7.779    -827.529    1249.073
  H       -6.603    -829.615    1249.788
  H       -7.231    -828.688    1251.168
  P      -11.102    -827.237    1251.936
  C      -10.781    -829.748    1252.484
  O      -11.656    -828.741    1252.046
  O      -12.102    -826.132    1251.753
  O      -10.389    -827.047    1253.373
  H      -10.975    -826.567    1253.959
  H      -11.318    -830.713    1252.445
  H      -10.461    -829.564    1253.510
  H       -9.910    -829.808    1251.810
  H       -5.640    -831.553    1253.659
  H       -7.070    -832.529    1253.425
  H       -7.178    -830.787    1253.339

 3  4  5  6  7  8  9  10  11  12  13  23  28  29  30  31  32 0
 6-311+G(2d,p)
 ****
 33  34 0
 6-311+G(2d,p)
 ****
 1  2  14  15  16  17  18  19  20  21  22  24  25  26  27 0
 3-21G
 ****
 35  36  37  38  39  40  41  42  43  44  45 0
 3-21G
 ****


