%nproc=1
%NoSave
%Mem=1900MB
#P OB98/GEN NMR

erre ene a

0 1
  C       36.174     -66.610     530.034
  O       37.194     -65.999     529.238
  P       36.921     -65.038     527.998
  C       38.861     -65.995     526.512
  O       38.284     -64.881     527.171
  C       40.407     -65.949     526.477
  O       40.936     -66.372     527.759
  C       40.949     -66.930     525.440
  O       41.023     -66.555     524.068
  C       42.276     -67.405     526.021
  O       43.392     -66.660     525.543
  C       42.096     -67.200     527.529
  N       44.342     -70.670     530.553
  C       44.885     -69.545     529.963
  N       46.200     -69.333     530.148
  N       44.190     -68.703     529.225
  C       42.905     -69.081     529.050
  C       42.255     -70.180     529.554
  C       43.011     -71.073     530.422
  O       42.577     -72.071     530.976
  N       40.951     -70.241     529.146
  C       40.812     -69.187     528.348
  N       41.977     -68.447     528.260
  O       36.162     -63.787     528.297
  O       36.002     -65.939     527.023
  H       43.162     -65.713     525.564
  H       35.387     -65.328     526.562
  H       44.909     -71.268     531.128
  H       39.907     -68.929     527.828
  H       42.951     -66.666     527.964
  H       42.463     -68.455     525.738
  H       46.806     -70.002     530.593
  H       40.289     -67.805     525.458
  H       46.647     -68.644     529.542
  H       40.757     -64.915     526.324
  H       38.463     -66.011     525.497
  H       38.542     -66.922     526.995
  P       40.785     -67.518     522.820
  C       43.036     -66.589     522.021
  O       41.749     -67.042     521.628
  O       39.329     -67.093     522.279
  O       40.822     -68.982     523.119
  H       38.965     -67.780     521.685
  H       43.471     -66.010     521.184
  H       43.681     -67.444     522.235
  H       42.973     -65.950     522.909
  H       36.627     -67.205     530.799
  H       35.563     -67.232     529.414
  H       35.569     -65.850     530.484

 3  4  5  6  7  8  9  10  11  12  23  26  30  31 0
 6-311+G(2d,p)
 ****
 33  35  36  37  38 0
 6-311+G(2d,p)
 ****
 1  2  13  14  15  16  17  18  19  20  21  22  24  25 0
 3-21G
 ****
 27  28  29  32  34  39  40  41  42  43  44  45  46  47  48  49 0
 3-21G
 ****


