%nproc=1
%NoSave
%Mem=1900MB
#P OB98/GEN NMR

erre ene a

0 1
  C      191.585      15.461     -54.027
  O      192.862      15.971     -53.710
  H      191.450      15.427     -55.110
  H      191.501      14.446     -53.630
  H      190.807      16.081     -53.575
  P      193.204      17.446     -54.239
  C      191.257      19.013     -53.554
  O      192.529      18.482     -53.211
  C      191.222      20.511     -53.258
  O      190.158      21.107     -54.043
  C      190.981      20.867     -51.781
  O      192.057      21.669     -51.284
  C      189.717      21.713     -51.796
  O      189.772      22.822     -50.901
  C      189.612      22.166     -53.247
  N      185.757      25.452     -52.699
  C      187.091      25.607     -52.556
  N      188.073      24.722     -52.819
  C      187.562      23.578     -53.305
  C      186.229      23.281     -53.530
  C      185.298      24.275     -53.185
  N      183.936      24.096     -53.280
  N      186.091      21.998     -54.028
  C      187.316      21.516     -54.063
  N      188.236      22.428     -53.617
  O      192.302      17.582     -55.555
  O      194.646      17.696     -54.530
  H      190.559      23.343     -51.149
  H      192.843      17.929     -56.289
  H      187.413      26.570     -52.169
  H      187.588      20.510     -54.354
  H      190.198      23.072     -53.440
  H      188.865      21.083     -51.513
  H      190.855      19.982     -51.148
  H      192.164      20.952     -53.605
  H      190.480      18.517     -52.961
  H      183.342      24.815     -52.902
  H      183.586      23.184     -53.537
  H      191.063      18.821     -54.614
  P      192.222      21.741     -49.684
  C      193.814      19.705     -49.378
  O      193.655      21.116     -49.323
  O      191.194      20.628     -49.168
  O      191.932      23.084     -49.106
  H      190.889      20.848     -48.268
  H      194.818      19.449     -49.112
  H      193.609      19.361     -50.370
  H      193.135      19.243     -48.693

 6  7  8  9  10  11  12  13  14  15  25  28  32  33  34  35 0
 6-311+G(2d,p)
 ****
 36  39  40 0
 6-311+G(2d,p)
 ****
 1  2  3  4  5  16  17  18  19  20  21  22  23  24 0
 3-21G
 ****
 26  27  29  30  31  37  38  41  42  43  44  45  46  47  48 0
 3-21G
 ****


