%nproc=1
%NoSave
%Mem=1900MB
#P OB98/GEN NMR

erre ene a

0 1
  C     -237.589     -53.549     189.266
  O     -238.651     -53.828     188.371
  P     -239.263     -52.656     187.470
  C     -241.321     -52.384     188.991
  O     -240.183     -51.744     188.416
  C     -241.994     -51.464     190.006
  O     -241.112     -51.210     191.119
  C     -242.357     -50.090     189.449
  O     -243.515     -50.160     188.643
  C     -242.526     -49.284     190.738
  O     -243.831     -49.505     191.306
  C     -241.435     -49.895     191.635
  N     -238.605     -46.912     194.662
  C     -239.833     -47.461     194.826
  N     -240.540     -48.217     193.951
  C     -239.859     -48.363     192.801
  C     -238.615     -47.836     192.473
  C     -237.962     -47.092     193.478
  N     -236.684     -46.583     193.348
  N     -238.261     -48.184     191.185
  C     -239.284     -48.900     190.739
  N     -240.236     -49.083     191.701
  O     -239.908     -53.100     186.197
  O     -238.006     -51.709     187.168
  H     -243.879     -48.990     192.131
  H     -237.855     -51.665     186.205
  H     -240.304     -47.273     195.785
  H     -239.365     -49.314     189.740
  H     -241.794     -50.042     192.664
  H     -242.415     -48.206     190.577
  H     -241.511     -49.680     188.882
  H     -242.889     -51.970     190.391
  H     -240.990     -53.305     189.489
  H     -236.265     -46.200     194.174
  H     -236.096     -46.964     192.615
  H     -242.032     -52.652     188.197
  P     -243.586     -49.327     187.270
  C     -244.778     -47.283     188.265
  O     -243.589     -47.772     187.668
  O     -244.656     -49.741     186.313
  O     -242.123     -49.526     186.636
  H     -242.192     -49.523     185.664
  H     -245.536     -47.118     187.492
  H     -244.558     -46.330     188.757
  H     -245.163     -47.983     189.012
  H     -237.311     -54.445     189.780
  H     -237.905     -52.814     189.976
  H     -236.749     -53.177     188.718

 3  4  5  6  7  8  9  10  11  12  22  25  29  30  31  32 0
 6-311+G(2d,p)
 ****
 33  36  37 0
 6-311+G(2d,p)
 ****
 1  2  13  14  15  16  17  18  19  20  21  23  24  26 0
 3-21G
 ****
 27  28  34  35  38  39  40  41  42  43  44  45  46  47  48 0
 3-21G
 ****


