%nproc=1
%NoSave
%Mem=1900MB
#P OB98/GEN NMR

erre ene a

0 1
  C     -450.987    -773.917    1165.432
  O     -452.048    -774.851    1165.290
  H     -451.292    -773.159    1166.158
  H     -450.784    -773.424    1164.475
  H     -450.095    -774.419    1165.796
  P     -451.807    -776.032    1164.226
  C     -451.103    -777.984    1165.777
  O     -452.155    -777.372    1165.039
  C     -451.661    -778.926    1166.833
  O     -452.242    -778.183    1167.913
  C     -452.752    -779.862    1166.315
  O     -452.192    -780.994    1165.689
  C     -453.451    -780.248    1167.631
  O     -452.699    -781.287    1168.279
  C     -453.364    -778.935    1168.446
  N     -456.806    -776.389    1171.275
  C     -455.856    -777.257    1171.607
  N     -455.002    -777.947    1170.797
  C     -455.222    -777.631    1169.520
  C     -456.173    -776.752    1169.011
  C     -456.988    -776.097    1169.960
  N     -457.976    -775.196    1169.586
  N     -456.100    -776.684    1167.640
  C     -455.090    -777.466    1167.320
  N     -454.543    -778.091    1168.412
  O     -450.512    -776.008    1163.501
  O     -453.106    -775.854    1163.292
  H     -452.722    -782.060    1167.677
  H     -453.887    -775.656    1163.831
  H     -455.741    -777.443    1172.676
  H     -454.701    -777.592    1166.309
  H     -453.150    -779.133    1169.504
  H     -454.458    -780.625    1167.472
  H     -453.465    -779.331    1165.680
  H     -450.823    -779.503    1167.251
  H     -450.481    -777.220    1166.254
  H     -458.615    -774.932    1170.308
  H     -458.178    -775.091    1168.617
  H     -450.474    -778.530    1165.062
  P     -453.112    -782.186    1165.123
  C     -452.383    -781.428    1162.766
  O     -452.501    -782.513    1163.675
  O     -454.575    -781.898    1165.164
  O     -452.700    -783.450    1165.991
  H     -453.377    -784.150    1165.904
  H     -451.965    -781.778    1161.845
  H     -451.744    -780.679    1163.186
  H     -453.351    -781.010    1162.582

 6  7  8  9  10  11  12  13  14  15  25  28  32  33  34  35 0
 6-311+G(2d,p)
 ****
 36  39  40 0
 6-311+G(2d,p)
 ****
 1  2  3  4  5  16  17  18  19  20  21  22  23  24 0
 3-21G
 ****
 26  27  29  30  31  37  38  41  42  43  44  45  46  47 0
 3-21G
 ****
 48 0
 3-21G
 ****


