%nproc=1
%NoSave
%Mem=1900MB
#P OB98/GEN NMR

erre ene a

0 1
  C       44.586    -221.913     -71.872
  O       43.900    -222.539     -72.943
  P       44.761    -223.057     -74.191
  C       46.346    -222.003     -75.959
  O       45.435    -221.779     -74.891
  C       46.949    -220.686     -76.449
  O       47.761    -220.102     -75.397
  C       47.844    -220.841     -77.681
  O       47.725    -219.670     -78.506
  C       49.246    -220.849     -77.104
  O       50.214    -220.453     -78.073
  C       49.076    -219.872     -75.940
  N       53.518    -218.188     -74.207
  C       52.645    -217.600     -75.102
  N       53.056    -216.449     -75.673
  N       51.472    -218.093     -75.403
  C       51.198    -219.253     -74.757
  C       51.973    -219.923     -73.837
  C       53.272    -219.374     -73.522
  O       54.105    -219.860     -72.763
  N       51.341    -221.048     -73.373
  C       50.205    -221.088     -74.040
  N       50.088    -220.039     -74.916
  O       43.634    -223.506     -75.239
  O       45.686    -224.184     -73.887
  H       51.091    -220.619     -77.679
  H       43.582    -224.481     -75.268
  H       54.414    -217.777     -74.017
  H       49.450    -221.857     -73.944
  H       49.115    -218.830     -76.280
  H       49.501    -221.854     -76.750
  H       53.975    -216.054     -75.536
  H       47.634    -221.730     -78.289
  H       52.456    -216.021     -76.367
  H       46.132    -219.982     -76.649
  H       45.817    -222.483     -76.783
  H       47.140    -222.680     -75.626
  P       47.810    -219.913     -80.090
  C       49.419    -221.412     -81.486
  O       49.241    -220.584     -80.355
  O       47.968    -218.435     -80.682
  O       46.635    -220.633     -80.664
  H       47.635    -218.399     -81.598
  H       50.162    -220.952     -82.144
  H       48.491    -221.555     -82.047
  H       49.788    -222.386     -81.158
  H       43.883    -221.624     -71.119
  H       45.098    -221.046     -72.234
  H       45.295    -222.597     -71.454

 3  4  5  6  7  8  9  10  11  12  23  26  30  31 0
 6-311+G(2d,p)
 ****
 33  35  36  37  38 0
 6-311+G(2d,p)
 ****
 1  2  13  14  15  16  17  18  19  20  21  22  24  25 0
 3-21G
 ****
 27  28  29  32  34  39  40  41  42  43  44  45  46  47  48  49 0
 3-21G
 ****


