%nproc=1
%NoSave
%Mem=1900MB
#P OB98/GEN NMR

erre ene a

0 1
  C       84.554      60.145      46.140
  O       83.812      61.269      46.582
  P       83.616      62.565      45.652
  C       81.905      63.022      43.768
  O       82.729      62.067      44.413
  C       81.679      62.628      42.306
  O       82.905      62.869      41.567
  C       81.295      61.158      42.099
  O       80.386      61.108      40.994
  C       82.617      60.511      41.735
  O       82.452      59.288      41.031
  C       83.272      61.633      40.923
  N       84.722      61.493      40.843
  C       85.247      60.780      39.764
  O       84.508      60.269      38.924
  N       86.610      60.660      39.657
  C       87.377      61.134      40.590
  N       88.722      61.042      40.408
  C       86.857      61.798      41.800
  C       85.539      61.960      41.847
  O       84.878      63.260      45.275
  O       82.581      63.475      46.457
  H       82.099      59.490      40.144
  H       83.019      64.052      47.132
  H       87.536      62.151      42.564
  H       85.071      62.457      42.685
  H       82.848      61.666      39.913
  H       83.184      60.300      42.647
  H       80.818      60.717      42.980
  H       80.910      63.287      41.886
  H       89.038      60.740      39.492
  H       82.410      63.990      43.798
  H       89.359      61.655      40.904
  H       80.954      63.111      44.303
  P       79.220      60.003      41.017
  C       77.156      59.560      42.525
  O       78.441      60.133      42.410
  O       80.062      58.651      41.231
  O       78.387      59.892      39.783
  H       79.553      57.901      40.870
  H       76.783      59.739      43.537
  H       77.200      58.481      42.356
  H       76.467      60.020      41.812
  H       84.561      59.398      46.907
  H       85.558      60.443      45.923
  H       84.103      59.745      45.256

 3  4  5  6  7  8  9  10  11  12  13  23  27  28  29  30  32 0
 6-311+G(2d,p)
 ****
 34  35 0
 6-311+G(2d,p)
 ****
 1  2  14  15  16  17  18  19  20  21  22  24  25  26 0
 3-21G
 ****
 31  33  36  37  38  39  40  41  42  43  44  45  46 0
 3-21G
 ****


