%nproc=1
%NoSave
%Mem=1900MB
#P OB98/GEN NMR

erre ene a

0 1
  C      -64.251       3.758      62.630
  O      -63.584       2.526      62.893
  P      -64.400       1.353      63.615
  C      -62.836      -0.291      64.976
  O      -63.473       0.063      63.769
  C      -61.658      -1.232      64.671
  O      -62.120      -2.393      63.947
  C      -60.570      -0.580      63.823
  O      -59.630       0.124      64.614
  C      -59.980      -1.774      63.100
  O      -59.099      -2.503      63.973
  C      -61.251      -2.603      62.798
  N      -62.010      -2.291      61.568
  C      -61.331      -1.923      60.409
  O      -60.109      -1.830      60.324
  N      -62.109      -1.669      59.311
  C      -63.448      -1.903      59.199
  O      -64.084      -1.713      58.171
  C      -64.093      -2.433      60.405
  C      -63.365      -2.587      61.513
  O      -65.484       0.918      62.526
  O      -65.035       1.751      64.911
  H      -58.249      -2.031      63.986
  H      -66.385       1.112      62.846
  H      -61.640      -1.332      58.484
  H      -65.146      -2.678      60.348
  H      -63.835      -2.979      62.412
  H      -61.013      -3.672      62.758
  H      -59.375      -1.462      62.252
  H      -61.019       0.078      63.073
  H      -61.233      -1.574      65.623
  H      -63.535      -0.780      65.657
  H      -62.478       0.611      65.481
  P      -59.497       1.713      64.470
  C      -56.948       1.506      64.661
  O      -58.117       2.098      65.194
  O      -60.688       2.510      64.882
  O      -59.143       1.919      62.919
  H      -59.955       2.122      62.400
  H      -56.076       1.968      65.133
  H      -56.895       1.668      63.582
  H      -56.942       0.435      64.877
  H      -63.576       4.433      62.148
  H      -64.586       4.186      63.552
  H      -65.092       3.579      61.993

 3  4  5  6  7  8  9  10  11  12  13  23  28  29  30  31  32 0
 6-311+G(2d,p)
 ****
 33  34 0
 6-311+G(2d,p)
 ****
 1  2  14  15  16  17  18  19  20  21  22  24  25  26  27 0
 3-21G
 ****
 35  36  37  38  39  40  41  42  43  44  45 0
 3-21G
 ****


