%nproc=1
%NoSave
%Mem=1900MB
#P OB98/GEN NMR

erre ene a

0 1
  C     -228.618    -362.559      67.180
  O     -227.858    -362.764      68.368
  P     -228.227    -361.905      69.670
  C     -229.099    -363.569      71.533
  O     -229.370    -362.646      70.501
  C     -229.344    -364.995      71.016
  O     -228.487    -365.275      69.888
  C     -229.075    -366.073      72.062
  O     -230.206    -366.316      72.878
  C     -228.683    -367.255      71.199
  O     -229.854    -367.867      70.627
  C     -227.843    -366.565      70.101
  N     -226.405    -366.338      70.361
  C     -225.495    -367.377      70.180
  O     -225.801    -368.506      69.807
  N     -224.183    -367.078      70.428
  C     -223.670    -365.836      70.665
  O     -222.476    -365.617      70.821
  C     -224.652    -364.748      70.702
  C     -225.948    -365.043      70.564
  O     -228.960    -360.615      69.079
  O     -227.049    -361.541      70.521
  H     -230.220    -368.469      71.299
  H     -228.437    -359.812      69.264
  H     -223.521    -367.832      70.370
  H     -224.287    -363.739      70.839
  H     -226.682    -364.242      70.590
  H     -227.908    -367.122      69.157
  H     -228.197    -368.030      71.788
  H     -228.207    -365.798      72.669
  H     -230.386    -365.064      70.672
  H     -229.727    -363.375      72.403
  H     -228.059    -363.460      71.862
  P     -230.206    -365.834      74.405
  C     -232.582    -365.567      75.332
  O     -231.543    -364.967      74.582
  O     -228.953    -365.191      74.891
  O     -230.552    -367.170      75.220
  H     -229.729    -367.604      75.544
  H     -233.361    -364.820      75.512
  H     -232.202    -365.924      76.294
  H     -233.013    -366.400      74.771
  H     -228.252    -363.202      66.407
  H     -228.526    -361.539      66.869
  H     -229.647    -362.782      67.372

 3  4  5  6  7  8  9  10  11  12  13  23  28  29  30  31  32 0
 6-311+G(2d,p)
 ****
 33  34 0
 6-311+G(2d,p)
 ****
 1  2  14  15  16  17  18  19  20  21  22  24  25  26  27 0
 3-21G
 ****
 35  36  37  38  39  40  41  42  43  44  45 0
 3-21G
 ****


