%nproc=1
%NoSave
%Mem=1900MB
#P OB98/GEN NMR

erre ene a

0 1
  C     -215.501     511.666     551.234
  O     -216.525     510.693     551.091
  H     -214.559     511.149     551.425
  H     -215.717     512.329     552.080
  H     -215.399     512.250     550.320
  P     -218.029     511.193     550.869
  C     -218.187     509.750     548.735
  O     -218.763     510.052     549.990
  C     -219.085     508.764     547.963
  O     -218.987     507.480     548.631
  C     -220.570     509.199     547.961
  O     -221.133     509.250     546.654
  C     -221.208     508.258     548.977
  O     -222.591     508.016     548.772
  C     -220.324     506.998     548.893
  N     -220.353     506.180     550.102
  C     -221.490     505.393     550.322
  O     -222.463     505.334     549.564
  N     -221.486     504.636     551.477
  C     -220.484     504.621     552.405
  O     -220.532     503.919     553.418
  C     -219.329     505.486     552.137
  C     -219.313     506.214     551.009
  O     -218.176     512.580     550.332
  O     -218.712     511.039     552.307
  H     -222.693     507.543     547.926
  H     -218.774     511.911     552.736
  H     -222.297     504.063     551.639
  H     -218.514     505.498     552.845
  H     -218.466     506.853     550.773
  H     -220.633     506.367     548.048
  H     -221.104     508.701     549.985
  H     -220.677     510.233     548.317
  H     -218.696     508.646     546.948
  H     -217.212     509.318     548.899
  H     -218.067     510.666     548.133
  P     -222.251     510.285     546.178
  C     -221.370     510.916     543.788
  O     -222.342     510.230     544.585
  O     -222.189     511.647     546.817
  O     -223.631     509.582     546.664
  H     -224.246     510.316     546.893
  H     -221.590     510.768     542.751
  H     -220.395     510.531     544.005
  H     -221.399     511.962     544.012

 6  7  8  9  10  11  12  13  14  15  16  26  31  32  33  34  35 0
 6-311+G(2d,p)
 ****
 36  37 0
 6-311+G(2d,p)
 ****
 1  2  3  4  5  17  18  19  20  21  22  23  24  25 0
 3-21G
 ****
 27  28  29  30  38  39  40  41  42  43  44  45 0
 3-21G
 ****


