%nproc=1
%NoSave
%Mem=1900MB
#P OB98/GEN NMR

erre ene a

0 1
  C     -128.807       2.517     308.291
  O     -128.819       1.150     307.924
  H     -129.696       2.728     308.891
  H     -128.830       3.142     307.395
  H     -127.917       2.749     308.884
  P     -127.495       0.561     307.240
  C     -125.046       0.300     308.071
  O     -126.420       0.367     308.418
  C     -124.307      -0.624     309.039
  O     -124.470      -0.105     310.390
  C     -124.820      -2.069     309.036
  O     -123.705      -2.945     309.233
  C     -125.713      -2.119     310.261
  O     -125.901      -3.427     310.786
  C     -124.953      -1.189     311.211
  N     -125.791      -0.691     312.300
  C     -126.361      -1.633     313.150
  O     -126.142      -2.842     313.105
  N     -127.221      -1.133     314.093
  C     -127.574       0.177     314.248
  O     -128.371       0.561     315.099
  C     -126.947       1.123     313.314
  C     -126.100       0.651     312.398
  O     -126.925       1.813     306.421
  O     -127.699      -0.642     306.381
  H     -127.297       1.828     305.520
  H     -126.576      -3.365     311.492
  H     -127.645      -1.800     314.719
  H     -127.214       2.169     313.401
  H     -125.636       1.322     311.679
  H     -124.075      -1.701     311.625
  H     -126.701      -1.708     310.019
  H     -125.354      -2.353     308.124
  H     -123.234      -0.590     308.809
  H     -124.607       1.301     308.130
  H     -124.951      -0.067     307.043
  P     -122.649      -3.080     308.030
  C     -120.133      -2.361     307.893
  O     -121.430      -2.116     308.420
  O     -123.415      -2.305     306.861
  O     -122.290      -4.496     307.726
  H     -123.933      -1.549     307.182
  H     -119.453      -1.621     308.260
  H     -120.167      -2.314     306.825
  H     -119.802      -3.332     308.197

 6  7  8  9  10  11  12  13  14  15  16  27  31  32  33  34  35 0
 6-311+G(2d,p)
 ****
 36  37 0
 6-311+G(2d,p)
 ****
 1  2  3  4  5  17  18  19  20  21  22  23  24  25 0
 3-21G
 ****
 26  28  29  30  38  39  40  41  42  43  44  45 0
 3-21G
 ****


