%nproc=1
%NoSave
%Mem=1900MB
#P OB98/GEN NMR

erre ene a

0 1
  C      -20.636     -19.891      42.892
  O      -20.330     -18.583      43.337
  H      -20.715     -20.547      43.762
  H      -19.839     -20.262      42.242
  H      -21.589     -19.893      42.358
  P      -20.195     -17.455      42.203
  C      -17.698     -18.141      42.189
  O      -18.854     -17.848      41.415
  C      -16.660     -18.876      41.344
  O      -17.221     -20.077      40.787
  C      -16.135     -18.074      40.159
  O      -15.131     -17.162      40.570
  C      -15.565     -19.188      39.294
  O      -14.271     -19.579      39.794
  C      -16.576     -20.330      39.509
  N      -19.850     -23.537      37.197
  C      -18.852     -23.756      38.081
  N      -17.996     -22.863      38.619
  C      -18.245     -21.626      38.160
  C      -19.229     -21.250      37.257
  C      -20.065     -22.270      36.774
  N      -21.090     -22.041      35.880
  N      -19.181     -19.892      37.019
  C      -18.221     -19.449      37.805
  N      -17.599     -20.464      38.489
  O      -20.297     -16.047      42.676
  O      -21.339     -17.914      41.179
  H      -13.938     -20.292      39.217
  H      -21.367     -18.885      41.111
  H      -18.726     -24.787      38.399
  H      -17.949     -18.407      37.929
  H      -16.077     -21.304      39.580
  H      -15.425     -18.878      38.256
  H      -16.948     -17.581      39.617
  H      -15.840     -19.177      42.008
  H      -17.966     -18.748      43.061
  H      -21.526     -22.845      35.457
  H      -21.166     -21.120      35.473
  H      -17.291     -17.189      42.544
  P      -15.089     -15.671      39.980
  C      -14.139     -16.663      37.807
  O      -15.124     -15.812      38.381
  O      -13.987     -14.816      40.504
  O      -16.527     -15.064      40.321
  H      -16.448     -14.123      40.570
  H      -14.258     -16.680      36.744
  H      -14.254     -17.654      38.195
  H      -13.164     -16.295      38.051

 6  7  8  9  10  11  12  13  14  15  25  28  32  33  34  35 0
 6-311+G(2d,p)
 ****
 36  39  40 0
 6-311+G(2d,p)
 ****
 1  2  3  4  5  16  17  18  19  20  21  22  23  24 0
 3-21G
 ****
 26  27  29  30  31  37  38  41  42  43  44  45  46  47 0
 3-21G
 ****
 48 0
 3-21G
 ****


