%nproc=1
%NoSave
%Mem=1900MB
#P OB98/GEN NMR

erre ene a

0 1
  C      491.469    -810.110      34.276
  O      490.430    -809.292      33.795
  H      491.481    -810.053      35.371
  H      492.434    -809.758      33.897
  H      491.326    -811.155      33.983
  P      489.984    -809.440      32.262
  C      487.681    -809.968      33.304
  O      488.589    -810.228      32.251
  C      486.377    -810.754      33.119
  O      485.670    -810.224      31.966
  C      486.650    -812.239      32.835
  O      485.578    -813.070      33.270
  C      486.733    -812.279      31.320
  O      486.471    -813.575      30.777
  C      485.687    -811.231      30.940
  N      485.128    -811.521      25.873
  C      484.888    -812.481      26.824
  N      484.434    -813.678      26.378
  N      485.094    -812.291      28.105
  C      485.606    -811.082      28.402
  C      485.920    -810.048      27.540
  C      485.649    -810.251      26.126
  O      485.869    -809.451      25.232
  N      486.452    -808.970      28.200
  C      486.464    -809.342      29.468
  N      485.944    -810.609      29.644
  O      491.009    -810.522      31.670
  O      489.998    -808.169      31.457
  H      485.504    -813.715      30.783
  H      491.069    -810.437      30.696
  H      484.916    -811.708      24.897
  H      486.820    -808.733      30.290
  H      484.682    -811.674      30.888
  H      487.741    -812.001      31.016
  H      484.444    -813.918      25.401
  H      487.585    -812.583      33.274
  H      484.550    -814.475      27.023
  H      485.724    -810.603      33.987
  H      487.489    -808.892      33.303
  H      488.138    -810.201      34.271
  P      485.927    -814.405      34.101
  C      485.143    -813.898      36.576
  O      486.187    -814.047      35.625
  O      487.387    -814.814      33.555
  O      484.944    -815.512      33.934
  H      487.350    -815.666      33.082
  H      485.562    -813.658      37.531
  H      484.593    -814.813      36.648
  H      484.488    -813.111      36.266

 6  7  8  9  10  11  12  13  14  15  26  29  33  34 0
 6-311+G(2d,p)
 ****
 36  38  39  40  41 0
 6-311+G(2d,p)
 ****
 1  2  3  4  5  16  17  18  19  20  21  22  23  24  25 0
 3-21G
 ****
 27  28  30  31  32  35  37  42  43  44  45  46  47 0
 3-21G
 ****
 48  49 0
 3-21G
 ****


