%nproc=1
%NoSave
%Mem=1900MB
#P OB98/GEN NMR

erre ene a

0 1
  C      -82.067      92.581     386.625
  O      -82.133      92.073     385.308
  P      -81.921      90.529     384.993
  C      -84.004      90.546     383.457
  O      -82.613      90.239     383.564
  C      -84.584      89.900     382.204
  O      -84.031      90.552     381.018
  C      -84.262      88.379     382.103
  O      -85.402      87.539     381.907
  C      -83.224      88.332     380.994
  O      -83.087      87.058     380.380
  C      -83.668      89.493     380.098
  N      -82.629      89.913     379.158
  C      -82.277      89.006     378.154
  O      -82.784      87.906     378.001
  N      -81.245      89.401     377.335
  C      -80.473      90.502     377.498
  O      -79.497      90.749     376.782
  C      -80.861      91.402     378.596
  C      -81.918      91.089     379.356
  O      -82.357      89.589     386.076
  O      -80.367      90.427     384.636
  H      -82.674      87.194     379.512
  H      -80.089      90.969     383.882
  H      -80.992      88.743     376.603
  H      -80.265      92.281     378.756
  H      -82.232      91.734     380.178
  H      -84.555      89.236     379.521
  H      -82.240      88.573     381.445
  H      -83.825      88.013     383.032
  H      -85.673      90.055     382.211
  H      -84.112      91.628     383.381
  H      -84.522      90.218     384.369
  P      -85.658      86.145     382.652
  C      -88.249      86.398     382.404
  O      -87.097      85.594     382.206
  O      -85.425      86.169     384.131
  O      -84.639      85.143     381.932
  H      -84.380      84.435     382.561
  H      -89.113      85.744     382.538
  H      -88.404      87.024     381.517
  H      -88.144      87.041     383.284
  H      -82.238      93.637     386.609
  H      -81.099      92.383     387.036
  H      -82.814      92.108     387.228

 3  4  5  6  7  8  9  10  11  12  13  23  28  29  30  31  32 0
 6-311+G(2d,p)
 ****
 33  34 0
 6-311+G(2d,p)
 ****
 1  2  14  15  16  17  18  19  20  21  22  24  25  26  27 0
 3-21G
 ****
 35  36  37  38  39  40  41  42  43  44  45 0
 3-21G
 ****


