%nproc=1
%NoSave
%Mem=1900MB
#P OB98/GEN NMR

erre ene a

0 1
  C      -37.485      37.241      22.000
  O      -36.159      37.458      21.559
  H      -37.950      38.208      22.204
  H      -37.484      36.649      22.920
  H      -38.062      36.726      21.228
  P      -35.304      36.154      21.185
  C      -35.126      33.775      22.219
  O      -35.452      35.144      22.422
  C      -35.608      32.951      23.408
  O      -34.992      33.439      24.623
  C      -37.108      33.038      23.651
  O      -37.848      32.219      22.765
  C      -37.197      32.597      25.103
  O      -37.203      31.168      25.217
  C      -35.912      33.173      25.708
  N      -37.558      35.023      30.171
  C      -37.340      33.760      29.743
  N      -36.887      33.351      28.539
  C      -36.625      34.405      27.749
  C      -36.794      35.746      28.048
  C      -37.284      36.046      29.330
  N      -37.530      37.329      29.759
  N      -36.455      36.532      26.965
  C      -36.079      35.683      26.031
  N      -36.162      34.387      26.460
  O      -33.793      36.670      21.292
  O      -35.597      35.567      19.845
  H      -37.107      30.969      26.168
  H      -33.452      36.866      20.399
  H      -37.569      32.975      30.458
  H      -35.750      35.954      25.035
  H      -35.419      32.467      26.386
  H      -38.108      32.971      25.569
  H      -37.442      34.082      23.580
  H      -35.296      31.909      23.263
  H      -34.039      33.671      22.125
  H      -35.598      33.431      21.294
  H      -37.946      37.467      30.665
  H      -37.438      38.092      29.099
  P      -39.192      32.826      22.135
  C      -41.576      33.387      23.029
  O      -40.313      32.786      23.279
  O      -39.667      31.705      21.096
  O      -39.025      34.155      21.480
  H      -40.075      32.128      20.316
  H      -42.202      33.272      23.889
  H      -42.036      32.913      22.187
  H      -41.441      34.428      22.823

 6  7  8  9  10  11  12  13  14  15  25  28  32  33  34  35 0
 6-311+G(2d,p)
 ****
 36  37  40 0
 6-311+G(2d,p)
 ****
 1  2  3  4  5  16  17  18  19  20  21  22  23  24 0
 3-21G
 ****
 26  27  29  30  31  38  39 41  42  43  44  45  46  47  48 0
 3-21G
 ****


