%nproc=1
%NoSave
%Mem=1900MB
#P OB98/GEN NMR

erre ene a

0 1
  C     -616.526     164.659    -160.756
  O     -616.399     163.277    -161.045
  H     -615.719     164.947    -160.076
  H     -617.486     164.856    -160.270
  H     -616.441     165.243    -161.675
  P     -617.483     162.658    -162.054
  C     -616.320     163.752    -164.093
  O     -617.496     163.676    -163.292
  C     -616.475     164.825    -165.167
  O     -615.212     165.110    -165.790
  C     -617.422     164.445    -166.302
  O     -618.768     164.649    -165.928
  C     -616.981     165.426    -167.377
  O     -617.569     166.719    -167.125
  C     -615.457     165.499    -167.168
  N     -613.458     164.944    -171.862
  C     -614.331     165.836    -171.363
  N     -614.856     165.900    -170.113
  C     -614.384     164.903    -169.353
  C     -613.482     163.915    -169.729
  C     -613.002     163.967    -171.045
  N     -612.104     163.047    -171.553
  N     -613.229     163.058    -168.676
  C     -613.922     163.551    -167.670
  N     -614.664     164.649    -168.036
  O     -618.805     162.323    -161.459
  O     -616.670     161.412    -162.646
  H     -617.189     167.343    -167.777
  H     -615.734     161.645    -162.782
  H     -614.659     166.614    -172.049
  H     -613.905     163.167    -166.656
  H     -615.078     166.520    -167.298
  H     -617.302     165.118    -168.377
  H     -617.233     163.424    -166.653
  H     -616.815     165.748    -164.675
  H     -616.115     162.782    -164.560
  H     -611.944     163.055    -172.550
  H     -611.862     162.258    -170.982
  H     -615.488     164.005    -163.427
  P     -619.967     164.298    -166.942
  C     -620.177     161.935    -165.946
  O     -619.959     162.699    -167.127
  O     -619.946     165.067    -168.217
  O     -621.302     164.559    -166.101
  H     -621.985     164.955    -166.676
  H     -620.151     160.893    -166.186
  H     -621.132     162.182    -165.533
  H     -619.411     162.156    -165.232

 6  7  8  9  10  11  12  13  14  15  25  28  32  33  34  35 0
 6-311+G(2d,p)
 ****
 36  39  40 0
 6-311+G(2d,p)
 ****
 1  2  3  4  5  16  17  18  19  20  21  22  23  24 0
 3-21G
 ****
 26  27  29  30  31  37  38  41  42  43  44  45  46  47 0
 3-21G
 ****
 48 0
 3-21G
 ****


