%nproc=1
%NoSave
%Mem=1900MB
#P OB98/GEN NMR

erre ene a

0 1
  C      150.030     -21.548     -91.142
  O      149.031     -22.420     -91.676
  P      149.044     -23.970     -91.279
  C      147.402     -25.969     -91.224
  O      147.567     -24.573     -91.446
  C      145.935     -26.281     -90.914
  O      145.533     -25.726     -89.638
  C      144.973     -25.667     -91.922
  O      144.979     -26.214     -93.224
  C      143.656     -25.685     -91.166
  O      143.017     -26.957     -91.254
  C      144.126     -25.413     -89.716
  N      143.863     -24.039     -89.287
  C      142.652     -23.824     -88.635
  O      141.816     -24.706     -88.457
  N      142.417     -22.540     -88.224
  C      143.239     -21.469     -88.427
  O      142.969     -20.335     -88.056
  C      144.492     -21.754     -89.143
  C      144.743     -23.005     -89.534
  O      149.728     -24.306     -89.997
  O      149.825     -24.642     -92.515
  H      142.715     -27.069     -92.175
  H      150.424     -25.324     -92.153
  H      141.549     -22.366     -87.742
  H      145.166     -20.928     -89.326
  H      145.662     -23.237     -90.063
  H      143.615     -26.084     -89.016
  H      142.952     -24.946     -91.562
  H      145.249     -24.609     -92.048
  H      145.814     -27.364     -90.854
  H      148.040     -26.291     -90.398
  H      147.746     -26.513     -92.110
  P      145.663     -25.490     -94.480
  C      147.547     -26.236     -96.096
  O      146.396     -26.604     -95.369
  O      146.409     -24.224     -94.219
  O      144.378     -25.146     -95.384
  H      144.551     -24.313     -95.861
  H      147.901     -27.109     -96.653
  H      148.340     -25.908     -95.420
  H      147.311     -25.441     -96.808
  H      149.871     -20.556     -91.510
  H      150.999     -21.889     -91.443
  H      149.968     -21.547     -90.074

 3  4  5  6  7  8  9  10  11  12  13  23  28  29  30  31  32 0
 6-311+G(2d,p)
 ****
 33  34 0
 6-311+G(2d,p)
 ****
 1  2  14  15  16  17  18  19  20  21  22  24  25  26  27 0
 3-21G
 ****
 35  36  37  38  39  40  41  42  43  44  45 0
 3-21G
 ****


