%nproc=1
%NoSave
%Mem=1900MB
#P OB98/GEN NMR

erre ene a

0 1
  C      128.148     893.832     988.991
  O      128.100     892.438     988.734
  H      127.329     894.088     989.665
  H      128.034     894.394     988.060
  H      129.101     894.096     989.474
  P      129.246     891.851     987.777
  C      130.470     889.565     987.565
  O      129.572     890.359     988.317
  C      130.694     888.236     988.293
  O      131.341     888.477     989.556
  C      129.421     887.492     988.636
  O      128.879     886.795     987.516
  C      129.904     886.570     989.741
  O      130.510     885.385     989.209
  C      130.942     887.424     990.472
  N      129.115     886.311     995.109
  C      129.636     885.539     994.144
  N      130.119     885.913     992.926
  C      130.030     887.248     992.785
  C      129.531     888.159     993.692
  C      129.051     887.665     994.915
  N      128.491     888.436     995.886
  N      129.587     889.441     993.159
  C      130.127     889.300     991.972
  N      130.412     888.001     991.698
  O      130.541     892.692     988.189
  O      128.956     891.941     986.311
  H      130.705     884.807     989.969
  H      130.690     893.414     987.541
  H      129.665     884.469     994.349
  H      130.313     890.121     991.271
  H      131.838     886.866     990.734
  H      129.066     886.256     990.384
  H      128.663     888.188     989.057
  H      131.357     887.601     987.681
  H      131.423     890.083     987.459
  H      130.045     889.393     986.570
  H      128.118     887.994     996.701
  H      128.343     889.416     995.698
  P      127.294     886.577     987.476
  C      125.542     886.291     985.552
  O      126.901     886.224     985.969
  O      126.685     888.050     987.692
  O      126.768     885.614     988.483
  H      125.852     887.993     988.214
  H      125.472     886.023     984.519
  H      125.176     887.287     985.687
  H      124.956     885.613     986.137

 6  7  8  9  10  11  12  13  14  15  25  28  32  33  34  35 0
 6-311+G(2d,p)
 ****
 36  37  40 0
 6-311+G(2d,p)
 ****
 1  2  3  4  5  16  17  18  19  20  21  22  23  24 0
 3-21G
 ****
 26  27  29  30  31  38  39 41  42  43  44  45  46  47  48 0
 3-21G
 ****


