%nproc=1
%NoSave
%Mem=1900MB
#P OB98/GEN NMR

erre ene a

0 1
  C     -236.414    -895.970     254.328
  O     -237.709    -895.460     254.651
  P     -237.841    -894.550     255.974
  C     -237.591    -895.080     258.515
  O     -237.816    -895.580     257.206
  C     -237.549    -896.200     259.537
  O     -236.550    -897.170     259.185
  C     -237.248    -895.750     260.966
  O     -238.372    -895.160     261.553
  C     -236.810    -897.080     261.590
  O     -237.974    -897.800     262.089
  C     -236.156    -897.820     260.424
  N     -234.711    -897.900     260.548
  C     -234.217    -899.110     261.059
  O     -235.007    -900.000     261.421
  N     -232.852    -899.250     261.219
  C     -232.071    -898.280     260.903
  N     -230.737    -898.460     261.071
  C     -232.540    -896.980     260.355
  C     -233.875    -896.870     260.215
  O     -239.352    -894.060     255.925
  O     -236.861    -893.420     256.057
  H     -238.465    -897.160     262.631
  H     -239.454    -893.210     256.401
  H     -231.846    -896.200     260.101
  H     -234.316    -895.960     259.833
  H     -236.558    -898.850     260.335
  H     -236.158    -896.910     262.450
  H     -236.402    -895.060     260.960
  H     -238.547    -896.730     259.496
  H     -230.429    -899.350     261.443
  H     -238.388    -894.380     258.773
  H     -230.028    -897.780     260.824
  H     -236.631    -894.530     258.517
  P     -238.136    -894.040     262.684
  C     -236.720    -894.220     264.814
  O     -237.619    -894.890     263.956
  O     -239.635    -893.670     263.107
  O     -237.332    -892.850     262.307
  H     -239.617    -892.930     263.742
  H     -236.571    -894.820     265.703
  H     -237.109    -893.240     265.111
  H     -235.762    -894.110     264.321
  H     -236.473    -896.552     253.432
  H     -236.062    -896.585     255.130
  H     -235.737    -895.155     254.180

 3  4  5  6  7  8  9  10  11  12  13  21  23  27  28  29  30  32 0
 6-311+G(2d,p)
 ****
 34  35 0
 6-311+G(2d,p)
 ****
 1  2  14  15  16  17  18  19  20  22  24  25  26 0
 3-21G
 ****
 31  33  36  37  38  39  40  41  42  43  44  45  46 0
 3-21G
 ****


