%nproc=1
%NoSave
%Mem=1900MB
#P OB98/GEN NMR

erre ene a

0 1
  C     -430.677     191.379    -211.444
  O     -429.766     190.998    -212.490
  P     -428.559     189.962    -212.271
  C     -426.637     191.677    -212.340
  O     -427.229     190.542    -212.956
  C     -425.102     191.624    -212.405
  O     -424.596     190.660    -211.423
  C     -424.537     191.223    -213.776
  O     -423.361     192.015    -213.984
  C     -424.189     189.758    -213.560
  O     -423.275     189.241    -214.513
  C     -423.640     189.828    -212.124
  N     -423.490     188.544    -211.448
  C     -422.233     187.926    -211.511
  O     -421.308     188.415    -212.150
  N     -422.058     186.736    -210.837
  C     -423.040     186.207    -210.185
  N     -422.792     185.036    -209.537
  C     -424.380     186.811    -210.110
  C     -424.535     187.964    -210.757
  O     -428.887     188.567    -212.704
  O     -428.237     189.997    -210.703
  H     -427.982     189.110    -210.409
  H     -422.566     189.902    -214.633
  H     -425.171     186.340    -209.550
  H     -425.484     188.494    -210.733
  H     -422.687     190.364    -212.126
  H     -425.108     189.164    -213.617
  H     -425.227     191.393    -214.607
  H     -424.720     192.604    -212.105
  H     -421.853     184.655    -209.597
  H     -426.947     191.708    -211.287
  H     -423.475     184.540    -208.990
  H     -427.008     192.583    -212.830
  P     -423.360     193.153    -215.118
  C     -421.260     192.433    -216.471
  O     -421.847     193.368    -215.591
  O     -423.624     194.479    -214.253
  O     -424.398     193.022    -216.186
  H     -424.041     195.156    -214.820
  H     -420.712     192.971    -217.249
  H     -421.994     191.791    -216.952
  H     -420.550     191.808    -215.914
  H     -431.391     192.077    -211.829
  H     -430.131     191.833    -210.643
  H     -431.186     190.511    -211.081

 3  4  5  6  7  8  9  10  11  12  13  24  27  28  29  30  32 0
 6-311+G(2d,p)
 ****
 34  35 0
 6-311+G(2d,p)
 ****
 1  2  14  15  16  17  18  19  20  21  22  23  25  26 0
 3-21G
 ****
 31  33  36  37  38  39  40  41  42  43  44  45  46 0
 3-21G
 ****


