%nproc=1
%NoSave
%Mem=1900MB
#P OB98/GEN NMR

erre ene a

0 1
  C      932.241       5.480    1264.888
  O      931.846       6.207    1266.038
  P      930.882       7.474    1265.840
  C      928.804       6.085    1266.698
  O      929.400       6.862    1265.669
  C      927.656       6.872    1267.346
  O      926.605       7.086    1266.401
  C      927.015       6.179    1268.542
  O      927.820       6.265    1269.715
  C      925.682       6.901    1268.632
  O      925.836       8.171    1269.292
  C      925.360       7.130    1267.133
  N      924.389       6.167    1266.595
  C      923.054       6.549    1266.662
  O      922.669       7.628    1267.150
  N      922.140       5.639    1266.185
  C      922.436       4.374    1265.715
  O      921.593       3.604    1265.337
  C      923.863       4.038    1265.692
  C      924.760       4.928    1266.126
  O      931.292       7.956    1264.365
  O      931.030       8.514    1266.908
  H      931.647       7.204    1263.828
  H      924.983       8.629    1269.234
  H      921.175       5.894    1266.200
  H      924.145       3.057    1265.329
  H      925.809       4.672    1266.147
  H      924.949       8.138    1266.972
  H      924.919       6.336    1269.164
  H      926.835       5.112    1268.299
  H      928.042       7.863    1267.654
  H      929.558       5.842    1267.457
  H      928.417       5.164    1266.266
  P      927.330       5.402    1270.987
  C      929.612       4.195    1271.412
  O      928.273       4.080    1271.026
  O      925.907       4.882    1270.477
  O      927.299       6.202    1272.253
  H      925.929       4.579    1269.551
  H      929.956       3.201    1271.709
  H      929.726       4.886    1272.254
  H      930.229       4.539    1270.571
  H      932.877       4.671    1265.179
  H      932.770       6.128    1264.221
  H      931.374       5.093    1264.396

 3  4  5  6  7  8  9  10  11  12  13  24  28  29  30  31  32 0
 6-311+G(2d,p)
 ****
 33  34 0
 6-311+G(2d,p)
 ****
 1  2  14  15  16  17  18  19  20  21  22  23  25  26  27 0
 3-21G
 ****
 35  36  37  38  39  40  41  42  43  44  45 0
 3-21G
 ****


