%nproc=1
%NoSave
%Mem=1900MB
#P OB98/GEN NMR

erre ene a

0 1
  C       28.979       9.848    -115.061
  O       27.904       9.731    -114.146
  P       28.272       9.476    -112.605
  C       27.435       7.045    -113.001
  O       28.444       7.890    -112.453
  C       27.910       5.596    -113.022
  O       29.060       5.466    -113.879
  C       28.348       5.068    -111.667
  O       27.224       4.746    -110.872
  C       29.187       3.862    -112.071
  O       28.365       2.696    -112.244
  C       29.798       4.312    -113.418
  N       31.220       4.595    -113.320
  C       31.887       4.797    -114.534
  O       31.271       4.712    -115.598
  N       33.236       5.051    -114.511
  C       33.861       5.093    -113.375
  N       35.196       5.353    -113.412
  C       33.200       4.865    -112.076
  C       31.892       4.617    -112.121
  O       26.898       9.779    -111.848
  O       29.403      10.304    -112.088
  H       28.931       2.040    -112.702
  H       27.064      10.061    -110.928
  H       33.768       4.911    -111.158
  H       31.327       4.437    -111.214
  H       29.658       3.533    -114.178
  H       29.934       3.613    -111.312
  H       28.980       5.803    -111.154
  H       27.104       4.977    -113.436
  H       35.623       5.498    -114.318
  H       27.217       7.361    -114.025
  H       35.768       5.429    -112.583
  H       26.525       7.148    -112.402
  P       27.478       4.398    -109.330
  C       26.128       2.220    -109.430
  O       27.406       2.799    -109.252
  O       26.091       4.830    -108.653
  O       28.650       5.043    -108.670
  H       26.157       4.756    -107.683
  H       26.241       1.137    -109.511
  H       25.660       2.596    -110.344
  H       25.494       2.445    -108.567
  H       28.593      10.015    -116.045
  H       29.555       8.946    -115.052
  H       29.601      10.671    -114.777

 3  4  5  6  7  8  9  10  11  12  13  21  23  27  28  29  30  32 0
 6-311+G(2d,p)
 ****
 34  35 0
 6-311+G(2d,p)
 ****
 1  2  14  15  16  17  18  19  20  22  24  25  26 0
 3-21G
 ****
 31  33  36  37  38  39  40  41  42  43  44  45  46 0
 3-21G
 ****


