%nproc=1
%NoSave
%Mem=1900MB
#P OB98/GEN NMR

erre ene a

0 1
  C      153.222     324.629    -132.327
  O      152.003     325.345    -132.286
  H      154.006     325.246    -131.879
  H      153.496     324.407    -133.362
  H      153.132     323.699    -131.758
  P      150.743     324.653    -133.002
  C      150.576     323.453    -135.313
  O      151.254     324.404    -134.505
  C      151.178     323.439    -136.713
  O      152.591     323.137    -136.654
  C      150.581     322.382    -137.644
  O      149.319     322.749    -138.171
  C      151.656     322.348    -138.723
  O      151.546     323.519    -139.547
  C      152.935     322.389    -137.856
  N      153.432     321.056    -137.506
  C      154.154     320.374    -138.495
  O      154.349     320.886    -139.594
  N      154.609     319.110    -138.221
  C      154.389     318.572    -137.058
  N      154.864     317.313    -136.851
  C      153.644     319.254    -135.990
  C      153.199     320.478    -136.271
  O      149.709     325.863    -133.178
  O      150.181     323.450    -132.319
  H      150.748     323.403    -140.094
  H      148.949     325.576    -133.746
  H      153.470     318.763    -135.039
  H      152.641     321.043    -135.534
  H      153.736     322.939    -138.365
  H      151.580     321.483    -139.380
  H      150.532     321.400    -137.160
  H      151.072     324.443    -137.135
  H      155.316     316.848    -137.628
  H      149.515     323.733    -135.358
  H      154.612     316.758    -136.045
  H      150.657     322.457    -134.868
  P      148.466     321.597    -138.908
  C      148.876     320.270    -141.107
  O      149.025     321.494    -140.406
  O      147.035     322.276    -139.095
  O      148.389     320.303    -138.162
  H      146.321     321.613    -139.021
  H      149.298     320.366    -142.086
  H      147.836     320.030    -141.189
  H      149.381     319.491    -140.575

 6  7  8  9  10  11  12  13  14  15  16  26  30  31  32  33  35 0
 6-311+G(2d,p)
 ****
 37  38 0
 6-311+G(2d,p)
 ****
 1  2  3  4  5  17  18  19  20  21  22  23  24  25 0
 3-21G
 ****
 27  28  29  34  36  39  40  41  42  43  44  45  46 0
 3-21G
 ****


