%nproc=1
%NoSave
%Mem=1900MB
#P OB98/GEN NMR

erre ene a

0 1
  C      939.191    -898.780    -242.572
  O      938.628    -898.090    -243.707
  P      937.262    -898.530    -244.416
  C      935.894    -896.310    -244.608
  O      936.117    -897.530    -243.937
  C      936.298    -895.070    -243.775
  O      937.754    -895.050    -243.611
  C      935.939    -893.780    -244.511
  O      934.628    -893.270    -244.414
  C      937.041    -892.800    -244.119
  O      936.671    -891.980    -243.005
  C      938.228    -893.720    -243.742
  N      942.501    -891.370    -245.292
  C      941.641    -891.020    -244.268
  N      941.937    -889.910    -243.586
  N      940.591    -891.730    -243.933
  C      940.358    -892.780    -244.770
  C      941.129    -893.220    -245.817
  C      942.349    -892.470    -246.140
  O      943.133    -892.720    -247.012
  N      940.582    -894.310    -246.423
  C      939.479    -894.550    -245.749
  N      939.301    -893.630    -244.715
  O      936.952    -900.000    -244.390
  O      937.499    -898.110    -245.960
  H      936.528    -892.570    -242.243
  H      937.018    -898.770    -246.498
  H      943.309    -890.810    -245.485
  H      938.777    -895.350    -245.941
  H      938.648    -893.430    -242.773
  H      937.263    -892.110    -244.952
  H      942.663    -889.260    -243.866
  H      936.107    -893.980    -245.592
  H      941.199    -889.530    -242.985
  H      935.894    -895.120    -242.756
  H      934.834    -896.260    -244.846
  H      936.426    -896.310    -245.566
  P      933.463    -893.480    -245.493
  C      931.453    -893.720    -243.891
  O      932.330    -894.390    -244.798
  O      934.082    -894.460    -246.592
  O      932.948    -892.200    -246.128
  H      933.546    -894.440    -247.413
  H      930.954    -894.460    -243.283
  H      930.694    -893.170    -244.450
  H      932.017    -893.030    -243.241
  H      940.102    -898.301    -242.279
  H      939.392    -899.797    -242.837
  H      938.497    -898.754    -241.758

 3  4  5  6  7  8  9  10  11  12  23  26  30  31 0
 6-311+G(2d,p)
 ****
 33  35  36  37  38 0
 6-311+G(2d,p)
 ****
 1  2  13  14  15  16  17  18  19  20  21  22  24  25 0
 3-21G
 ****
 27  28  29  32  34  39  40  41  42  43  44  45  46  47  48  49 0
 3-21G
 ****


