%nproc=1
%NoSave
%Mem=1900MB
#P OB98/GEN NMR

erre ene a

0 1
  C      437.380    -420.464    -396.587
  O      438.776    -420.768    -396.730
  P      439.363    -422.009    -395.905
  C      439.924    -423.991    -397.493
  O      440.378    -422.808    -396.859
  C      440.491    -424.096    -398.910
  O      439.971    -423.062    -399.775
  C      442.012    -423.950    -398.964
  O      442.666    -425.169    -398.672
  C      442.213    -423.586    -400.427
  O      442.162    -424.780    -401.240
  C      441.012    -422.685    -400.717
  N      439.958    -418.059    -402.477
  C      439.450    -419.294    -402.855
  N      438.526    -419.295    -403.834
  N      439.824    -420.434    -402.305
  C      440.743    -420.268    -401.325
  C      441.332    -419.107    -400.869
  C      440.915    -417.864    -401.488
  O      441.338    -416.746    -401.213
  N      442.216    -419.354    -399.866
  C      442.181    -420.667    -399.708
  N      441.307    -421.268    -400.578
  O      438.108    -423.003    -395.812
  O      439.889    -421.663    -394.553
  H      442.890    -425.355    -400.942
  H      438.177    -423.551    -395.011
  H      439.635    -417.224    -402.938
  H      442.754    -421.213    -398.972
  H      440.610    -422.832    -401.731
  H      443.198    -423.119    -400.612
  H      438.155    -418.453    -404.265
  H      442.360    -423.125    -398.316
  H      438.117    -420.182    -404.096
  H      440.209    -425.072    -399.329
  H      438.824    -424.008    -397.538
  H      440.204    -424.860    -396.885
  P      443.180    -425.410    -397.166
  C      443.139    -428.010    -397.235
  O      443.919    -426.830    -397.174
  O      441.815    -425.685    -396.375
  O      443.952    -424.272    -396.588
  H      441.909    -425.353    -395.452
  H      443.807    -428.857    -397.394
  H      442.429    -427.964    -398.068
  H      442.593    -428.149    -396.295
  H      437.136    -419.617    -397.193
  H      437.166    -420.243    -395.562
  H      436.798    -421.306    -396.899

 3  4  5  6  7  8  9  10  11  12  23  26  30  31 0
 6-311+G(2d,p)
 ****
 33  35  36  37  38 0
 6-311+G(2d,p)
 ****
 1  2  13  14  15  16  17  18  19  20  21  22  24  25 0
 3-21G
 ****
 27  28  29  32  34  39  40  41  42  43  44  45  46  47  48  49 0
 3-21G
 ****


