%nproc=1
%NoSave
%Mem=1900MB
#P OB98/GEN NMR

erre ene a

0 1
  C       37.231    -111.380     -46.237
  O       37.798    -110.200     -45.669
  P       38.244    -110.222     -44.128
  C       37.051    -110.155     -41.844
  O       36.935    -110.459     -43.230
  C       35.673    -109.941     -41.214
  O       34.971    -108.840     -41.827
  C       34.753    -111.141     -41.365
  O       35.126    -112.184     -40.483
  C       33.392    -110.511     -41.088
  O       33.152    -110.407     -39.676
  C       33.554    -109.103     -41.705
  N       32.871    -108.951     -42.982
  C       31.503    -108.662     -42.915
  O       30.936    -108.588     -41.824
  N       30.811    -108.480     -44.089
  C       31.431    -108.586     -45.225
  N       30.697    -108.392     -46.354
  C       32.868    -108.901     -45.338
  C       33.518    -109.078     -44.189
  O       39.121    -109.095     -43.693
  O       39.007    -111.629     -44.001
  H       33.881    -109.863     -39.318
  H       39.697    -111.554     -43.312
  H       33.339    -108.974     -46.309
  H       34.577    -109.316     -44.181
  H       33.158    -108.342     -41.021
  H       32.576    -111.106     -41.512
  H       34.786    -111.503     -42.403
  H       35.814    -109.714     -40.148
  H       29.710    -108.186     -46.251
  H       37.662    -109.254     -41.718
  H       31.096    -108.403     -47.282
  H       37.590    -110.972     -41.346
  P       35.473    -113.614     -41.123
  C       34.183    -115.815     -41.579
  O       34.109    -114.446     -41.231
  O       36.267    -114.353     -39.941
  O       36.297    -113.559     -42.372
  H       36.951    -114.936     -40.319
  H       33.237    -116.295     -41.304
  H       34.999    -116.320     -41.052
  H       34.326    -115.915     -42.657
  H       36.989    -111.201     -47.264
  H       36.342    -111.642     -45.702
  H       37.936    -112.182     -46.171

 3  4  5  6  7  8  9  10  11  12  13  23  27  28  29  30  32 0
 6-311+G(2d,p)
 ****
 34  35 0
 6-311+G(2d,p)
 ****
 1  2  14  15  16  17  18  19  20  21  22  24  25  26 0
 3-21G
 ****
 31  33  36  37  38  39  40  41  42  43  44  45  46 0
 3-21G
 ****


