%nproc=1
%NoSave
%Mem=1900MB
#P OB98/GEN NMR

erre ene a

0 1
  C      577.258    -239.669    -173.908
  O      576.011    -239.158    -174.345
  H      577.465    -240.600    -174.445
  H      577.217    -239.884    -172.839
  H      578.059    -238.951    -174.118
  P      575.562    -237.733    -173.762
  C      575.394    -236.383    -175.987
  O      574.702    -237.024    -174.923
  C      574.463    -236.227    -177.193
  O      574.293    -237.542    -177.807
  C      573.070    -235.704    -176.824
  O      572.605    -234.840    -177.864
  C      572.222    -236.968    -176.786
  O      570.834    -236.728    -176.985
  C      572.869    -237.791    -177.908
  N      572.587    -239.218    -177.791
  C      571.325    -239.661    -178.164
  O      570.444    -238.942    -178.651
  N      571.074    -240.991    -177.954
  C      571.935    -241.901    -177.396
  O      571.637    -243.071    -177.206
  C      573.258    -241.374    -177.020
  C      573.516    -240.080    -177.231
  O      576.925    -236.892    -173.747
  O      574.890    -237.763    -172.428
  H      577.382    -237.003    -172.893
  H      570.732    -236.272    -177.846
  H      570.151    -241.319    -178.215
  H      573.957    -242.056    -176.567
  H      574.478    -239.656    -176.937
  H      572.538    -237.425    -178.882
  H      572.348    -237.470    -175.823
  H      573.055    -235.178    -175.869
  H      574.947    -235.587    -177.930
  H      576.260    -236.992    -176.271
  H      575.751    -235.397    -175.652
  P      572.323    -233.303    -177.488
  C      573.194    -232.418    -179.797
  O      572.111    -232.537    -178.884
  O      573.772    -232.836    -176.995
  O      571.226    -233.143    -176.489
  H      574.505    -233.234    -177.500
  H      572.871    -231.882    -180.665
  H      573.528    -233.393    -180.084
  H      573.998    -231.889    -179.330

 6  7  8  9  10  11  12  13  14  15  16  27  31  32  33  34  35 0
 6-311+G(2d,p)
 ****
 36  37 0
 6-311+G(2d,p)
 ****
 1  2  3  4  5  17  18  19  20  21  22  23  24  25 0
 3-21G
 ****
 26  28  29  30  38  39  40  41  42  43  44  45 0
 3-21G
 ****


