%nproc=1
%NoSave
%Mem=1900MB
#P OB98/GEN NMR

erre ene a

0 1
  C     -254.933       2.394     118.867
  O     -254.044       3.133     118.053
  H     -255.955       2.729     118.671
  H     -254.705       2.564     119.923
  H     -254.861       1.326     118.641
  P     -252.496       2.721     118.102
  C     -252.330       0.842     116.303
  O     -252.120       2.210     116.626
  C     -252.343       0.665     114.782
  O     -253.675       0.989     114.292
  C     -251.350       1.577     114.055
  O     -250.800       0.878     112.934
  C     -252.222       2.726     113.568
  O     -251.683       3.420     112.453
  C     -253.526       1.982     113.254
  N     -254.685       2.871     113.224
  C     -254.984       3.494     112.018
  O     -254.390       3.292     110.956
  N     -256.024       4.390     112.050
  C     -256.759       4.733     113.155
  O     -257.661       5.561     113.125
  C     -256.385       4.048     114.402
  C     -255.384       3.168     114.380
  O     -252.501       1.371     118.964
  O     -251.567       3.750     118.653
  H     -252.386       1.570     119.913
  H     -250.914       3.940     112.765
  H     -256.256       4.848     111.184
  H     -256.939       4.304     115.298
  H     -255.079       2.657     115.289
  H     -253.441       1.451     112.298
  H     -252.374       3.449     114.376
  H     -250.544       1.930     114.701
  H     -252.156      -0.391     114.544
  H     -253.293       0.521     116.713
  H     -251.530       0.238     116.747
  P     -249.271       0.400     113.038
  C     -249.592      -2.164     113.442
  O     -249.253      -1.129     112.536
  O     -249.075       0.304     114.619
  O     -248.324       1.316     112.335
  H     -249.867      -0.022     115.090
  H     -249.528      -3.109     112.944
  H     -250.590      -2.015     113.797
  H     -248.914      -2.150     114.269

 6  7  8  9  10  11  12  13  14  15  16  27  31  32  33  34  35 0
 6-311+G(2d,p)
 ****
 36  37 0
 6-311+G(2d,p)
 ****
 1  2  3  4  5  17  18  19  20  21  22  23  24  25 0
 3-21G
 ****
 26  28  29  30  38  39  40  41  42  43  44  45 0
 3-21G
 ****


