%nproc=1
%NoSave
%Mem=1900MB
#P OB98/GEN NMR

erre ene a

0 1
  C       26.711      69.519      17.293
  O       27.685      68.627      16.790
  H       26.088      69.858      16.462
  H       27.188      70.388      17.751
  H       26.072      69.014      18.024
  P       28.777      68.032      17.800
  C       30.571      69.886      17.709
  O       30.207      68.568      17.306
  C       31.889      70.298      17.043
  O       32.951      69.517      17.645
  C       31.892      70.027      15.530
  O       32.248      71.171      14.757
  C       32.767      68.786      15.398
  O       33.407      68.645      14.147
  C       33.720      68.904      16.595
  N       34.275      67.630      17.037
  C       35.501      67.245      16.500
  O       36.163      67.908      15.702
  N       35.980      66.034      16.927
  C       35.369      65.190      17.804
  O       35.853      64.118      18.153
  C       34.067      65.639      18.320
  C       33.586      66.818      17.919
  O       28.710      66.558      18.029
  O       28.536      68.849      19.158
  H       33.926      67.815      14.168
  H       28.046      68.292      19.791
  H       36.873      65.750      16.553
  H       33.548      64.991      19.012
  H       32.629      67.181      18.280
  H       34.552      69.565      16.354
  H       32.132      67.900      15.534
  H       30.882      69.786      15.175
  H       32.084      71.352      17.266
  H       30.679      69.888      18.798
  H       29.778      70.590      17.429
  P       31.204      72.197      14.122
  C       31.415      71.447      11.618
  O       31.620      72.454      12.598
  O       30.895      73.399      14.949
  O       29.852      71.324      14.003
  H       29.106      71.947      14.136
  H       31.753      71.801      10.667
  H       30.373      71.211      11.561
  H       31.965      70.570      11.888

 6  7  8  9  10  11  12  13  14  15  16  26  31  32  33  34  35 0
 6-311+G(2d,p)
 ****
 36  37 0
 6-311+G(2d,p)
 ****
 1  2  3  4  5  17  18  19  20  21  22  23  24  25 0
 3-21G
 ****
 27  28  29  30  38  39  40  41  42  43  44  45 0
 3-21G
 ****


