%nproc=1
%NoSave
%Mem=1900MB
#P OB98/GEN NMR

erre ene a

0 1
  C      -35.454      98.250     -88.382
  O      -35.865      96.931     -88.676
  H      -36.122      98.947     -88.894
  H      -34.432      98.419     -88.732
  H      -35.514      98.429     -87.305
  P      -34.975      95.747     -88.061
  C      -33.055      96.657     -89.521
  O      -33.461      96.263     -88.216
  C      -31.543      96.502     -89.678
  O      -30.891      97.223     -88.600
  C      -31.066      95.046     -89.614
  O      -29.967      94.875     -90.511
  C      -30.570      94.908     -88.185
  O      -29.630      93.848     -88.037
  C      -30.009      96.306     -87.930
  N      -26.960      96.171     -83.856
  C      -26.722      95.980     -85.171
  N      -27.594      96.060     -86.197
  C      -28.811      96.429     -85.757
  C      -29.205      96.658     -84.452
  C      -28.214      96.505     -83.467
  N      -28.453      96.662     -82.122
  N      -30.549      96.970     -84.403
  C      -30.957      96.941     -85.659
  N      -29.943      96.598     -86.510
  O      -35.241      94.387     -88.611
  O      -35.237      95.917     -86.492
  H      -28.813      94.088     -88.523
  H      -35.163      96.850     -86.215
  H      -25.699      95.722     -85.433
  H      -31.968      97.142     -85.997
  H      -28.997      96.434     -88.337
  H      -31.414      94.702     -87.517
  H      -31.851      94.327     -89.847
  H      -31.234      96.980     -90.614
  H      -33.337      97.699     -89.705
  H      -27.684      96.536     -81.484
  H      -29.379      96.917     -81.810
  H      -33.581      96.022     -90.243
  P      -30.223      94.175     -91.929
  C      -29.918      91.697     -91.293
  O      -30.834      92.710     -91.680
  O      -29.083      94.225     -92.890
  O      -31.487      94.980     -92.499
  H      -31.352      95.154     -93.451
  H      -30.443      90.774     -91.159
  H      -29.445      91.976     -90.374
  H      -29.176      91.578     -92.054

 6  7  8  9  10  11  12  13  14  15  25  28  32  33  34  35 0
 6-311+G(2d,p)
 ****
 36  39  40 0
 6-311+G(2d,p)
 ****
 1  2  3  4  5  16  17  18  19  20  21  22  23  24 0
 3-21G
 ****
 26  27  29  30  31  37  38  41  42  43  44  45  46  47 0
 3-21G
 ****
 48 0
 3-21G
 ****


