%nproc=1
%NoSave
%Mem=1900MB
#P OB98/GEN NMR

erre ene a

0 1
  C      171.040      -8.897     198.228
  O      170.538      -7.592     198.023
  H      172.095      -8.829     198.501
  H      170.955      -9.482     197.308
  H      170.501      -9.399     199.037
  P      168.961      -7.391     197.808
  C      168.724      -7.476     200.376
  O      168.239      -7.952     199.127
  C      167.880      -6.294     200.846
  O      166.510      -6.704     201.046
  C      168.332      -5.696     202.174
  O      169.497      -4.907     202.008
  C      167.084      -4.920     202.577
  O      167.016      -3.666     201.887
  C      165.962      -5.876     202.099
  N      165.407      -6.700     203.174
  C      164.650      -6.036     204.135
  O      164.474      -4.815     204.126
  N      164.115      -6.820     205.124
  C      164.329      -8.160     205.283
  O      163.867      -8.808     206.221
  C      165.165      -8.802     204.260
  C      165.660      -8.056     203.270
  O      168.408      -7.913     196.522
  O      168.761      -5.807     197.938
  H      166.205      -3.219     202.196
  H      168.688      -5.411     197.048
  H      163.572      -6.355     205.835
  H      165.362      -9.866     204.360
  H      166.281      -8.513     202.508
  H      165.141      -5.302     201.651
  H      167.052      -4.698     203.644
  H      168.503      -6.493     202.911
  H      167.893      -5.529     200.054
  H      169.766      -7.156     200.252
  H      168.686      -8.293     201.105
  P      170.477      -4.625     203.240
  C      171.898      -6.686     202.679
  O      171.122      -6.034     203.676
  O      169.882      -3.837     204.360
  O      171.714      -3.850     202.581
  H      171.676      -2.902     202.818
  H      172.278      -7.607     203.069
  H      172.714      -6.056     202.394
  H      171.286      -6.886     201.824

 6  7  8  9  10  11  12  13  14  15  16  26  31  32  33  34  35 0
 6-311+G(2d,p)
 ****
 36  37 0
 6-311+G(2d,p)
 ****
 1  2  3  4  5  17  18  19  20  21  22  23  24  25 0
 3-21G
 ****
 27  28  29  30  38  39  40  41  42  43  44  45 0
 3-21G
 ****


