%nproc=1
%NoSave
%Mem=1900MB
#P OB98/GEN NMR

erre ene a

0 1
  C      523.399    -195.314    -376.859
  O      524.193    -195.114    -375.704
  H      522.357    -195.420    -376.551
  H      523.709    -196.229    -377.370
  H      523.486    -194.458    -377.533
  P      525.741    -194.753    -375.949
  C      526.983    -197.035    -375.553
  O      526.420    -196.110    -376.469
  C      527.909    -198.010    -376.276
  O      528.880    -197.250    -377.044
  C      528.680    -198.942    -375.341
  O      528.787    -200.224    -375.965
  C      530.052    -198.300    -375.239
  O      531.061    -199.243    -374.877
  C      530.199    -197.677    -376.640
  N      531.142    -196.562    -376.651
  C      532.157    -196.606    -377.616
  O      532.240    -197.565    -378.388
  N      533.080    -195.589    -377.657
  C      533.039    -194.646    -376.771
  N      533.990    -193.680    -376.850
  C      532.017    -194.585    -375.700
  C      531.108    -195.558    -375.709
  O      526.280    -194.607    -374.448
  O      525.962    -193.550    -376.809
  H      531.921    -198.770    -374.842
  H      525.935    -195.284    -373.844
  H      532.036    -193.789    -374.974
  H      530.317    -195.588    -374.964
  H      530.542    -198.428    -377.360
  H      530.036    -197.513    -374.479
  H      528.216    -199.049    -374.363
  H      527.316    -198.579    -377.003
  H      534.683    -193.765    -377.589
  H      526.193    -197.591    -375.042
  H      534.086    -192.928    -376.181
  H      527.540    -196.467    -374.804
  P      527.509    -201.194    -375.985
  C      527.162    -202.240    -373.653
  O      526.814    -201.183    -374.535
  O      527.736    -202.553    -376.560
  O      526.454    -200.372    -376.873
  H      525.971    -201.014    -377.435
  H      526.637    -202.120    -372.728
  H      528.216    -202.219    -373.470
  H      526.895    -203.177    -374.096

 6  7  8  9  10  11  12  13  14  15  16  26  30  31  32  33  35 0
 6-311+G(2d,p)
 ****
 37  38 0
 6-311+G(2d,p)
 ****
 1  2  3  4  5  17  18  19  20  21  22  23  24  25 0
 3-21G
 ****
 27  28  29  34  36  39  40  41  42  43  44  45  46 0
 3-21G
 ****


