%nproc=1
%NoSave
%Mem=1900MB
#P OB98/GEN NMR

erre ene a

0 1
  C      527.440    -598.148     641.051
  O      526.459    -598.107     640.015
  P      526.639    -596.962     638.900
  C      525.049    -595.292     640.099
  O      526.343    -595.535     639.587
  C      524.910    -593.887     640.682
  O      524.990    -592.882     639.616
  C      523.581    -593.645     641.415
  O      523.844    -592.741     642.488
  C      522.731    -592.946     640.376
  O      521.653    -592.220     640.996
  C      523.790    -592.081     639.680
  N      523.377    -591.622     638.338
  C      522.258    -590.788     638.278
  O      521.617    -590.512     639.306
  N      521.860    -590.308     637.057
  C      522.492    -590.679     635.984
  N      522.048    -590.178     634.800
  C      523.634    -591.611     636.003
  C      524.022    -592.038     637.206
  O      525.370    -597.186     637.937
  O      527.918    -597.053     638.144
  H      521.124    -591.786     640.281
  H      525.668    -597.208     637.007
  H      524.121    -591.910     635.077
  H      524.859    -592.725     637.326
  H      524.020    -591.185     640.280
  H      522.301    -593.680     639.686
  H      523.145    -594.557     641.816
  H      525.752    -593.702     641.352
  H      521.257    -589.540     634.834
  H      524.822    -596.019     640.892
  H      522.452    -590.396     633.916
  H      524.309    -595.478     639.315
  P      523.543    -593.215     643.992
  C      521.152    -592.273     643.816
  O      521.953    -593.431     644.038
  O      523.707    -591.836     644.809
  O      524.382    -594.295     644.582
  H      523.609    -592.009     645.758
  H      520.106    -592.579     643.749
  H      521.433    -591.776     642.901
  H      521.257    -591.584     644.673
  H      527.213    -598.947     641.726
  H      527.436    -597.219     641.583
  H      528.406    -598.309     640.621

 3  4  5  6  7  8  9  10  11  12  13  21  23  27  28  29  30  32 0
 6-311+G(2d,p)
 ****
 34  35 0
 6-311+G(2d,p)
 ****
 1  2  14  15  16  17  18  19  20  22  24  25  26 0
 3-21G
 ****
 31  33  36  37  38  39  40  41  42  43  44  45  46 0
 3-21G
 ****


