%nproc=1
%NoSave
%Mem=1900MB
#P OB98/GEN NMR

erre ene a

0 1
  C      402.970    -246.003    -503.685
  O      402.982    -244.729    -503.075
  H      402.536    -246.718    -502.985
  H      403.989    -246.322    -503.922
  H      402.358    -245.988    -504.591
  P      403.582    -243.490    -503.901
  C      401.115    -242.768    -504.254
  O      402.369    -243.037    -504.859
  C      400.662    -241.350    -504.591
  O      401.487    -240.355    -503.937
  C      400.734    -240.988    -506.073
  O      399.720    -241.600    -506.862
  C      400.569    -239.481    -505.983
  O      399.191    -239.160    -505.725
  C      401.461    -239.159    -504.762
  N      402.814    -238.766    -505.142
  C      402.976    -237.467    -505.637
  O      402.011    -236.713    -505.752
  N      404.230    -237.060    -506.035
  C      405.230    -237.882    -505.959
  N      406.446    -237.429    -506.372
  C      405.103    -239.265    -505.455
  C      403.883    -239.638    -505.069
  O      404.892    -243.729    -504.586
  O      403.624    -242.284    -502.848
  H      398.692    -239.377    -506.537
  H      403.999    -241.494    -503.308
  H      405.963    -239.921    -505.446
  H      403.708    -240.643    -504.697
  H      401.015    -238.360    -504.154
  H      400.854    -238.960    -506.897
  H      401.730    -241.208    -506.481
  H      399.642    -241.230    -504.196
  H      406.502    -236.474    -506.711
  H      401.229    -242.894    -503.171
  H      407.263    -238.022    -506.421
  H      400.366    -243.467    -504.616
  P      400.005    -241.722    -508.437
  C      400.712    -244.238    -508.332
  O      401.084    -242.896    -508.610
  O      400.828    -240.387    -508.765
  O      398.791    -241.880    -509.290
  H      400.235    -239.709    -509.148
  H      401.550    -244.882    -508.500
  H      399.907    -244.525    -508.975
  H      400.400    -244.317    -507.312

 6  7  8  9  10  11  12  13  14  15  16  26  30  31  32  33  35 0
 6-311+G(2d,p)
 ****
 37  38 0
 6-311+G(2d,p)
 ****
 1  2  3  4  5  17  18  19  20  21  22  23  24  25 0
 3-21G
 ****
 27  28  29  34  36  39  40  41  42  43  44  45  46 0
 3-21G
 ****


