%nproc=1
%NoSave
%Mem=1900MB
#P OB98/GEN NMR

erre ene a

0 1
  C     -895.590      -6.589     516.938
  O     -894.500      -5.817     517.467
  P     -894.900      -4.626     518.473
  C     -893.780      -5.615     520.603
  O     -894.990      -5.228     519.961
  C     -894.000      -5.849     522.104
  O     -894.470      -4.644     522.757
  C     -894.970      -6.980     522.419
  O     -894.540      -7.618     523.617
  C     -896.280      -6.219     522.711
  O     -897.180      -7.026     523.479
  C     -895.700      -4.981     523.439
  N     -896.640      -3.859     523.455
  C     -897.650      -3.883     524.426
  O     -897.770      -4.859     525.163
  N     -898.510      -2.831     524.487
  C     -898.410      -1.851     523.643
  N     -899.320      -0.835     523.766
  C     -897.400      -1.811     522.568
  C     -896.560      -2.837     522.542
  O     -896.410      -4.289     518.095
  O     -894.020      -3.421     518.331
  H     -896.790      -7.148     524.372
  H     -896.530      -3.339     517.970
  H     -897.390      -0.988     521.880
  H     -895.780      -2.892     521.799
  H     -895.460      -5.231     524.486
  H     -896.750      -5.930     521.778
  H     -895.080      -7.714     521.610
  H     -893.020      -6.097     522.547
  H     -900.000      -0.900     524.525
  H     -893.030      -4.837     520.466
  H     -899.350      -0.038     523.160
  H     -893.400      -6.517     520.112
  P     -893.900      -9.071     523.493
  C     -891.800      -8.540     524.865
  O     -892.320      -8.816     523.597
  O     -894.080      -9.393     521.935
  O     -894.440     -10.174     524.353
  H     -893.770     -10.291     521.753
  H     -890.690      -8.503     524.810
  H     -892.090      -9.303     525.584
  H     -892.150      -7.546     525.212
  H     -895.207      -7.347     516.286
  H     -896.249      -5.948     516.391
  H     -896.126      -7.048     517.743

 3  4  5  6  7  8  9  10  11  12  13  21  23  27  28  29  30  32 0
 6-311+G(2d,p)
 ****
 34  35 0
 6-311+G(2d,p)
 ****
 1  2  14  15  16  17  18  19  20  22  24  25  26 0
 3-21G
 ****
 31  33  36  37  38  39  40  41  42  43  44  45  46 0
 3-21G
 ****


