%nproc=1
%NoSave
%Mem=1900MB
#P OB98/GEN NMR

erre ene a

0 1
  C     -892.310    -896.650    -899.026
  O     -893.110    -897.800    -899.016
  P     -893.170    -898.570    -897.616
  C     -895.440    -897.770    -896.636
  O     -894.030    -897.710    -896.556
  C     -896.150    -896.900    -895.596
  O     -896.120    -897.480    -894.306
  C     -895.500    -895.470    -895.536
  O     -896.490    -894.500    -895.216
  C     -894.580    -895.610    -894.226
  O     -894.280    -894.340    -893.776
  C     -895.480    -896.530    -893.406
  N     -894.770    -897.170    -892.386
  C     -894.960    -896.710    -891.026
  O     -895.650    -895.730    -890.826
  N     -894.340    -897.360    -889.996
  C     -893.560    -898.400    -890.226
  N     -892.960    -898.970    -889.166
  C     -893.250    -898.850    -891.626
  C     -893.890    -898.250    -892.606
  O     -891.680    -898.510    -897.056
  O     -893.640    -900.000    -897.786
  H     -895.210    -893.940    -893.376
  H     -891.400    -899.390    -896.766
  H     -892.590    -899.690    -891.786
  H     -893.780    -898.520    -893.676
  H     -896.330    -895.920    -892.916
  H     -893.630    -896.180    -894.536
  H     -894.920    -895.150    -896.386
  H     -897.180    -896.730    -895.906
  H     -893.210    -898.640    -888.256
  H     -895.790    -898.810    -896.466
  H     -892.300    -899.760    -889.266
  H     -895.730    -897.490    -897.646
  P     -896.630    -893.240    -896.296
  C     -899.140    -893.810    -896.476
  O     -897.930    -893.650    -897.136
  O     -895.430    -893.570    -897.246
  O     -896.620    -891.890    -895.716
  H     -895.410    -892.860    -897.946
  H     -900.000    -893.940    -897.196
  H     -899.380    -892.920    -895.846
  H     -899.160    -894.690    -895.786
  H     -892.333    -896.208    -900.000
  H     -891.303    -896.914    -898.778
  H     -892.682    -895.950    -898.307

 3  4  5  6  7  8  9  10  11  12  13  21  23  27  28  29  30  32 0
 6-311+G(2d,p)
 ****
 34  35 0
 6-311+G(2d,p)
 ****
 1  2  14  15  16  17  18  19  20  22  24  25  26 0
 3-21G
 ****
 31  33  36  37  38  39  40  41  42  43  44  45  46 0
 3-21G
 ****


