%nproc=1
%NoSave
%Mem=1900MB
#P OB98/GEN NMR

erre ene a

0 1
  C     -564.911    -134.667    -223.201
  O     -564.892    -134.379    -224.590
  P     -565.942    -133.296    -225.142
  C     -564.291    -132.860    -227.145
  O     -565.612    -133.126    -226.702
  C     -564.281    -132.630    -228.661
  O     -565.146    -131.525    -228.992
  C     -562.915    -132.265    -229.234
  O     -562.072    -133.399    -229.358
  C     -563.315    -131.623    -230.556
  O     -563.597    -132.636    -231.539
  C     -564.612    -130.881    -230.172
  N     -564.417    -129.451    -229.947
  C     -563.838    -128.739    -230.993
  O     -563.500    -129.258    -232.056
  N     -563.636    -127.401    -230.764
  C     -563.891    -126.740    -229.601
  O     -563.656    -125.550    -229.438
  C     -564.470    -127.551    -228.520
  C     -564.702    -128.849    -228.736
  O     -565.378    -131.965    -224.458
  O     -567.356    -133.629    -224.810
  H     -564.421    -132.025    -224.285
  H     -564.548    -132.839    -231.456
  H     -563.238    -126.860    -231.517
  H     -564.682    -127.058    -227.576
  H     -565.122    -129.464    -227.950
  H     -565.369    -131.007    -230.955
  H     -562.529    -130.977    -230.969
  H     -562.433    -131.516    -228.593
  H     -564.673    -133.531    -229.148
  H     -563.654    -133.718    -226.904
  H     -563.910    -131.982    -226.618
  P     -560.488    -133.121    -229.336
  C     -559.968    -135.619    -228.776
  O     -559.785    -134.527    -229.645
  O     -560.232    -132.886    -227.774
  O     -560.067    -131.986    -230.212
  H     -560.716    -133.513    -227.212
  H     -559.730    -136.543    -229.317
  H     -560.997    -135.682    -228.419
  H     -559.291    -135.526    -227.920
  H     -564.164    -135.400    -222.978
  H     -565.874    -135.045    -222.928
  H     -564.709    -133.773    -222.649

 3  4  5  6  7  8  9  10  11  12  13  24  28  29  30  31  32 0
 6-311+G(2d,p)
 ****
 33  34 0
 6-311+G(2d,p)
 ****
 1  2  14  15  16  17  18  19  20  21  22  23  25  26  27 0
 3-21G
 ****
 35  36  37  38  39  40  41  42  43  44  45 0
 3-21G
 ****


