%nproc=1
%NoSave
%Mem=1900MB
#P OB98/GEN NMR

erre ene a

0 1
  C     -597.802    -311.296     341.658
  O     -597.975    -310.886     340.313
  P     -599.409    -310.293     339.902
  C     -598.919    -307.734     339.994
  O     -599.539    -308.858     340.608
  C     -599.949    -306.641     339.733
  O     -600.643    -306.304     340.953
  C     -599.369    -305.331     339.216
  O     -599.016    -305.434     337.845
  C     -600.524    -304.379     339.511
  O     -601.540    -304.515     338.502
  C     -601.043    -304.910     340.858
  N     -601.148    -300.478     343.419
  C     -601.774    -300.881     342.293
  N     -601.678    -302.069     341.659
  C     -600.836    -302.891     342.310
  C     -600.108    -302.610     343.456
  C     -600.292    -301.333     344.018
  N     -599.644    -300.921     345.166
  N     -599.329    -303.685     343.817
  C     -599.590    -304.604     342.914
  N     -600.504    -304.178     341.992
  O     -600.430    -311.206     340.725
  O     -599.697    -310.310     338.434
  H     -601.241    -304.008     337.718
  H     -601.256    -311.344     340.224
  H     -602.445    -300.156     341.837
  H     -599.145    -305.592     342.891
  H     -602.137    -304.880     340.931
  H     -600.218    -303.327     339.532
  H     -598.492    -305.048     339.806
  H     -600.690    -307.039     339.023
  H     -598.477    -308.038     339.039
  H     -599.716    -299.949     345.414
  H     -598.902    -301.507     345.534
  H     -598.118    -307.371     340.646
  P     -597.499    -305.089     337.448
  C     -596.718    -307.539     337.410
  O     -596.655    -306.295     338.092
  O     -597.174    -303.872     338.439
  O     -597.267    -304.830     336.001
  H     -597.436    -304.067     339.359
  H     -596.064    -308.248     337.919
  H     -596.387    -307.418     336.376
  H     -597.747    -307.924     337.432
  H     -596.808    -311.668     341.792
  H     -598.506    -312.068     341.889
  H     -597.962    -310.462     342.309

 3  4  5  6  7  8  9  10  11  12  22  25  29  30  31  32 0
 6-311+G(2d,p)
 ****
 33  36  37 0
 6-311+G(2d,p)
 ****
 1  2  13  14  15  16  17  18  19  20  21  23  24  26 0
 3-21G
 ****
 27  28  34  35  38  39  40  41  42  43  44  45  46  47  48 0
 3-21G
 ****


