%nproc=1
%NoSave
%Mem=1900MB
#P OB98/GEN NMR

erre ene a

0 1
  C      -92.575     202.783    -263.856
  O      -92.168     204.118    -263.615
  P      -92.989     205.069    -262.607
  C      -91.309     204.471    -260.731
  O      -92.666     204.483    -261.148
  C      -91.215     204.858    -259.256
  O      -91.464     206.269    -259.114
  C      -92.224     204.159    -258.353
  O      -91.840     202.819    -258.093
  C      -92.222     205.093    -257.148
  O      -91.080     204.826    -256.315
  C      -92.072     206.478    -257.809
  N      -93.344     207.186    -257.934
  C      -93.733     207.950    -256.827
  O      -93.034     208.013    -255.816
  N      -94.909     208.654    -256.904
  C      -95.638     208.588    -257.975
  N      -96.759     209.364    -258.023
  C      -95.294     207.754    -259.140
  C      -94.136     207.089    -259.050
  O      -94.437     205.209    -262.918
  O      -92.179     206.443    -262.612
  H      -91.177     205.386    -255.516
  H      -92.476     207.073    -263.318
  H      -95.942     207.716    -260.003
  H      -93.797     206.469    -259.866
  H      -91.366     207.096    -257.241
  H      -93.120     205.001    -256.523
  H      -93.220     204.162    -258.819
  H      -90.188     204.651    -258.908
  H      -96.860     210.048    -257.280
  H      -90.754     205.197    -261.332
  H      -97.209     209.588    -258.896
  H      -90.882     203.471    -260.903
  P      -92.965     201.812    -257.548
  C      -93.760     201.356    -259.976
  O      -94.113     201.791    -258.675
  O      -93.619     202.618    -256.331
  O      -92.449     200.474    -257.133
  H      -93.275     202.288    -255.479
  H      -94.675     201.175    -260.545
  H      -93.183     200.430    -259.932
  H      -93.183     202.132    -260.487
  H      -91.902     202.325    -264.550
  H      -93.565     202.780    -264.263
  H      -92.566     202.236    -262.937

 3  4  5  6  7  8  9  10  11  12  13  23  27  28  29  30  32 0
 6-311+G(2d,p)
 ****
 34  35 0
 6-311+G(2d,p)
 ****
 1  2  14  15  16  17  18  19  20  21  22  24  25  26 0
 3-21G
 ****
 31  33  36  37  38  39  40  41  42  43  44  45  46 0
 3-21G
 ****


