%nproc=1
%NoSave
%Mem=1900MB
#P OB98/GEN NMR

erre ene a

0 1
  C      -12.954     600.540     -38.520
  O      -13.786     599.500     -38.991
  H      -12.502     601.044     -39.379
  H      -12.155     600.136     -37.893
  H      -13.546     601.267     -37.956
  P      -14.472     598.558     -37.886
  C      -15.159     596.859     -39.730
  O      -14.499     597.073     -38.485
  C      -14.577     595.628     -40.412
  O      -13.170     595.840     -40.691
  C      -14.621     594.363     -39.562
  O      -15.906     593.755     -39.561
  C      -13.579     593.506     -40.253
  O      -14.120     592.807     -41.385
  C      -12.528     594.551     -40.700
  N      -11.343     594.522     -39.844
  C      -10.167     594.111     -40.468
  O      -10.100     593.779     -41.656
  N       -9.060     594.039     -39.661
  C       -9.025     594.290     -38.319
  O       -8.012     594.157     -37.646
  C      -10.304     594.709     -37.715
  C      -11.385     594.798     -38.492
  O      -16.003     599.014     -37.921
  O      -13.884     598.674     -36.517
  H      -16.210     599.543     -37.127
  H      -14.313     593.490     -42.056
  H       -8.201     593.749     -40.095
  H      -10.313     594.913     -36.656
  H      -12.342     595.091     -38.070
  H      -12.217     594.357     -41.729
  H      -13.174     592.756     -39.574
  H      -14.286     594.583     -38.540
  H      -15.097     595.469     -41.363
  H      -15.013     597.728     -40.382
  H      -16.228     596.736     -39.543
  P      -16.328     592.904     -38.265
  C      -18.643     592.225     -39.334
  O      -17.398     591.828     -38.788
  O      -17.198     593.989     -37.476
  O      -15.160     592.355     -37.515
  H      -17.599     594.641     -38.073
  H      -19.201     591.357     -39.618
  H      -18.476     592.839     -40.194
  H      -19.193     592.779     -38.602

 6  7  8  9  10  11  12  13  14  15  16  27  31  32  33  34  35 0
 6-311+G(2d,p)
 ****
 36  37 0
 6-311+G(2d,p)
 ****
 1  2  3  4  5  17  18  19  20  21  22  23  24  25 0
 3-21G
 ****
 26  28  29  30  38  39  40  41  42  43  44  45 0
 3-21G
 ****


