%nproc=1
%NoSave
%Mem=1900MB
#P OB98/GEN NMR

erre ene a

0 1
  C     -585.770     637.185     818.073
  O     -586.098     637.137     816.699
  H     -586.590     636.738     818.643
  H     -585.645     638.220     818.393
  H     -584.860     636.615     818.279
  P     -584.986     637.559     815.628
  C     -584.813     635.627     813.924
  O     -584.298     636.201     815.114
  C     -585.605     634.346     814.234
  O     -586.712     634.695     815.113
  C     -586.209     633.665     812.996
  O     -586.271     632.258     813.278
  C     -587.595     634.284     812.973
  O     -588.471     633.628     812.084
  C     -587.921     634.222     814.473
  N     -589.073     635.012     814.893
  C     -590.336     634.438     814.742
  O     -590.546     633.316     814.280
  N     -591.391     635.215     815.139
  C     -591.306     636.466     815.681
  O     -592.291     637.101     816.045
  C     -589.955     637.018     815.799
  C     -588.914     636.277     815.418
  O     -584.032     638.620     816.063
  O     -585.844     638.024     814.357
  H     -585.872     638.996     814.320
  H     -589.342     634.080     812.100
  H     -592.309     634.814     815.042
  H     -589.857     638.017     816.219
  H     -587.902     636.655     815.510
  H     -588.066     633.183     814.785
  H     -587.539     635.318     812.621
  H     -585.626     633.827     812.082
  H     -584.959     633.660     814.794
  H     -583.969     635.385     813.268
  H     -585.459     636.355     813.421
  P     -585.080     631.237     812.952
  C     -584.193     630.385     815.235
  O     -584.018     631.302     814.159
  O     -584.465     631.432     811.606
  O     -585.721     629.780     813.082
  H     -585.226     629.149     812.527
  H     -583.423     630.537     815.962
  H     -584.139     629.383     814.862
  H     -585.149     630.546     815.689

 6  7  8  9  10  11  12  13  14  15  16  27  31  32  33  34  35 0
 6-311+G(2d,p)
 ****
 36  37 0
 6-311+G(2d,p)
 ****
 1  2  3  4  5  17  18  19  20  21  22  23  24  25 0
 3-21G
 ****
 26  28  29  30  38  39  40  41  42  43  44  45 0
 3-21G
 ****


