%nproc=1
%NoSave
%Mem=1900MB
#P OB98/GEN NMR

erre ene a

0 1
  C      335.449     119.251     -87.964
  O      334.960     118.964     -86.667
  H      334.989     120.178     -88.314
  H      335.186     118.441     -88.651
  H      336.534     119.381     -87.938
  P      335.533     117.641     -85.967
  C      333.525     116.654     -84.627
  O      334.694     117.458     -84.612
  C      332.383     117.353     -83.877
  O      332.618     117.218     -82.444
  C      332.276     118.857     -84.171
  O      330.899     119.243     -84.008
  C      333.105     119.451     -83.043
  O      332.881     120.838     -82.925
  C      332.649     118.556     -81.895
  N      333.611     120.937     -77.476
  C      332.620     121.084     -78.378
  N      332.422     120.406     -79.525
  C      333.376     119.471     -79.696
  C      334.442     119.199     -78.857
  C      334.550     119.986     -77.699
  N      335.564     119.844     -76.781
  N      335.214     118.170     -79.371
  C      334.617     117.831     -80.497
  N      333.508     118.596     -80.737
  O      336.982     118.088     -85.461
  O      335.591     116.428     -86.836
  H      333.523     121.244     -82.305
  H      337.657     117.833     -86.119
  H      331.885     121.855     -78.148
  H      334.949     117.053     -81.174
  H      331.632     118.804     -81.565
  H      334.176     119.325     -83.238
  H      332.618     119.132     -85.173
  H      331.443     116.834     -84.093
  H      333.754     115.696     -84.145
  H      333.221     116.472     -85.663
  H      335.578     120.458     -75.982
  H      336.280     119.149     -76.943
  P      330.096     119.822     -85.274
  C      328.481     121.467     -84.035
  O      328.634     120.274     -84.793
  O      329.771     118.485     -86.103
  O      330.839     120.800     -86.124
  H      329.693     118.702     -87.052
  H      327.447     121.612     -83.803
  H      328.839     122.300     -84.604
  H      329.043     121.388     -83.128

 6  7  8  9  10  11  12  13  14  15  25  28  32  33  34  35 0
 6-311+G(2d,p)
 ****
 36  37  40 0
 6-311+G(2d,p)
 ****
 1  2  3  4  5  16  17  18  19  20  21  22  23  24 0
 3-21G
 ****
 26  27  29  30  31  38  39 41  42  43  44  45  46  47  48 0
 3-21G
 ****


