%nproc=1
%NoSave
%Mem=1900MB
#P OB98/GEN NMR

erre ene a

0 1
  C      -39.959      -0.677      61.407
  O      -38.594      -0.884      61.728
  P      -38.260      -1.650      63.099
  C      -38.565       0.656      64.252
  O      -38.822      -0.740      64.295
  C      -39.067       1.342      65.524
  O      -40.518       1.237      65.574
  C      -38.519       0.745      66.830
  O      -38.368       1.832      67.749
  C      -39.645      -0.181      67.253
  O      -39.587      -0.577      68.612
  C      -40.854       0.661      66.857
  N      -44.864      -1.133      69.471
  C      -43.842      -0.325      69.832
  N      -42.814       0.118      69.079
  C      -42.912      -0.351      67.823
  C      -43.883      -1.196      67.314
  C      -44.898      -1.592      68.199
  N      -45.936      -2.424      67.829
  N      -43.638      -1.484      65.987
  C      -42.533      -0.825      65.699
  N      -42.071      -0.110      66.770
  O      -36.675      -1.486      63.227
  O      -38.680      -3.087      63.138
  H      -40.364      -1.129      68.832
  H      -36.262      -2.297      63.581
  H      -43.851       0.011      70.865
  H      -42.026      -0.842      64.744
  H      -41.027       1.486      67.559
  H      -39.598      -1.097      66.651
  H      -37.553       0.245      66.705
  H      -38.820       2.409      65.462
  H      -39.088       1.096      63.397
  H      -46.493      -2.806      68.578
  H      -45.838      -2.919      66.951
  H      -37.492       0.824      64.112
  P      -37.016       1.941      68.607
  C      -37.859       0.270      70.368
  O      -36.913       0.518      69.347
  O      -37.492       2.892      69.805
  O      -35.813       2.421      67.871
  H      -38.316       2.571      70.212
  H      -37.738      -0.760      70.713
  H      -38.875       0.398      69.984
  H      -37.686       0.948      71.209
  H      -40.031      -0.159      60.474
  H      -40.422      -0.094      62.176
  H      -40.454      -1.622      61.330

 3  4  5  6  7  8  9  10  11  12  22  25  29  30  31  32 0
 6-311+G(2d,p)
 ****
 33  36  37 0
 6-311+G(2d,p)
 ****
 1  2  13  14  15  16  17  18  19  20  21  23  24  26 0
 3-21G
 ****
 27  28  34  35  38  39  40  41  42  43  44  45  46  47  48 0
 3-21G
 ****


