%nproc=1
%NoSave
%Mem=1900MB
#P OB98/GEN NMR

erre ene a

0 1
  C     -316.433      48.347      24.872
  O     -316.423      47.984      26.243
  P     -317.548      48.626      27.192
  C     -317.942      50.975      28.229
  O     -317.017      50.074      27.637
  C     -317.250      52.278      28.636
  O     -316.683      52.901      27.449
  C     -318.174      53.312      29.300
  O     -317.388      54.002      30.281
  C     -318.520      54.222      28.132
  O     -319.049      55.478      28.518
  C     -317.179      54.258      27.408
  N     -315.299      57.496      23.925
  C     -314.923      57.221      25.194
  N     -315.468      56.339      26.060
  C     -316.501      55.694      25.492
  C     -317.010      55.880      24.217
  C     -316.362      56.831      23.413
  N     -316.754      57.115      22.121
  N     -318.097      55.057      23.996
  C     -318.243      54.385      25.120
  N     -317.290      54.720      26.045
  O     -317.427      47.762      28.532
  O     -318.938      48.601      26.630
  H     -318.368      55.997      28.994
  H     -318.305      47.587      28.921
  H     -314.073      57.783      25.566
  H     -319.022      53.662      25.321
  H     -316.451      54.899      27.923
  H     -319.281      53.729      27.513
  H     -319.046      52.865      29.791
  H     -316.416      52.031      29.308
  H     -318.369      50.518      29.127
  H     -316.356      57.946      21.704
  H     -317.660      56.771      21.827
  H     -318.761      51.169      27.527
  P     -318.122      54.621      31.568
  C     -319.821      56.521      31.883
  O     -318.972      55.848      30.974
  O     -316.901      55.383      32.272
  O     -318.837      53.646      32.441
  H     -316.430      55.959      31.643
  H     -320.259      57.385      31.376
  H     -319.248      56.869      32.749
  H     -320.626      55.856      32.204
  H     -315.634      47.848      24.365
  H     -316.306      49.406      24.782
  H     -317.367      48.062      24.434

 3  4  5  6  7  8  9  10  11  12  22  25  29  30  31  32 0
 6-311+G(2d,p)
 ****
 33  36  37 0
 6-311+G(2d,p)
 ****
 1  2  13  14  15  16  17  18  19  20  21  23  24  26 0
 3-21G
 ****
 27  28  34  35  38  39  40  41  42  43  44  45  46  47  48 0
 3-21G
 ****


