%nproc=1
%NoSave
%Mem=1900MB
#P OB98/GEN NMR

erre ene a

0 1
  C      141.624    -148.188    -422.973
  O      140.240    -148.286    -422.687
  P      139.265    -149.107    -423.659
  C      138.553    -146.995    -424.938
  O      139.129    -148.294    -425.035
  C      138.142    -146.493    -426.320
  O      139.284    -146.436    -427.215
  C      137.130    -147.377    -427.035
  O      135.837    -147.260    -426.472
  C      137.257    -146.873    -428.464
  O      136.502    -145.665    -428.651
  C      138.770    -146.579    -428.558
  N      139.487    -147.614    -429.297
  C      139.496    -147.483    -430.688
  O      138.842    -146.587    -431.235
  N      140.225    -148.380    -431.428
  C      140.796    -149.387    -430.840
  N      141.559    -150.208    -431.615
  C      140.685    -149.644    -429.390
  C      140.041    -148.717    -428.680
  O      137.975    -149.534    -423.055
  O      140.145    -150.384    -424.095
  H      139.610    -151.190    -423.949
  H      136.707    -145.342    -429.545
  H      141.121    -150.535    -428.961
  H      139.925    -148.809    -427.606
  H      138.938    -145.614    -429.046
  H      136.891    -147.599    -429.193
  H      137.457    -148.419    -426.987
  H      137.745    -145.471    -426.210
  H      141.626    -149.988    -432.606
  H      139.290    -146.318    -424.503
  H      142.288    -150.800    -431.230
  H      137.685    -147.033    -424.272
  P      134.830    -148.492    -426.695
  C      133.861    -147.321    -428.795
  O      134.417    -148.503    -428.245
  O      133.496    -148.028    -425.949
  O      135.327    -149.804    -426.164
  H      133.068    -148.798    -425.523
  H      133.967    -147.363    -429.880
  H      134.374    -146.427    -428.422
  H      132.802    -147.267    -428.538
  H      142.104    -147.605    -422.215
  H      141.759    -147.718    -423.924
  H      142.054    -149.168    -422.995

 3  4  5  6  7  8  9  10  11  12  13  24  27  28  29  30  32 0
 6-311+G(2d,p)
 ****
 34  35 0
 6-311+G(2d,p)
 ****
 1  2  14  15  16  17  18  19  20  21  22  23  25  26 0
 3-21G
 ****
 31  33  36  37  38  39  40  41  42  43  44  45  46 0
 3-21G
 ****


