%nproc=1
%NoSave
%Mem=1900MB
#P OB98/GEN NMR

erre ene a

0 1
  C      533.788      64.771    -147.508
  O      533.860      66.094    -147.991
  H      532.735      64.494    -147.401
  H      534.273      64.683    -146.531
  H      534.260      64.083    -148.217
  P      535.296      66.823    -147.989
  C      536.865      67.382    -146.014
  O      535.516      67.328    -146.480
  C      537.065      68.544    -145.037
  O      536.963      69.802    -145.740
  C      536.012      68.612    -143.944
  O      536.096      67.568    -142.996
  C      536.119      70.057    -143.473
  O      537.124      70.264    -142.486
  C      536.516      70.788    -144.786
  N      535.422      71.599    -145.309
  C      535.701      72.947    -145.484
  O      536.783      73.466    -145.198
  N      534.670      73.714    -145.962
  C      533.407      73.274    -146.223
  O      532.510      74.021    -146.612
  C      533.164      71.841    -146.000
  C      534.168      71.076    -145.560
  O      535.484      67.894    -149.021
  O      536.334      65.612    -148.119
  H      537.989      70.133    -142.925
  H      537.224      65.937    -148.394
  H      534.855      74.695    -146.100
  H      532.171      71.453    -146.197
  H      534.016      70.015    -145.382
  H      537.369      71.451    -144.602
  H      535.174      70.411    -143.049
  H      535.025      68.513    -144.411
  H      538.074      68.474    -144.618
  H      537.512      67.528    -146.888
  H      537.127      66.430    -145.537
  P      534.819      66.816    -142.402
  C      532.702      67.533    -141.067
  O      534.051      67.835    -141.422
  O      535.014      65.405    -141.953
  O      533.843      66.785    -143.689
  H      533.326      65.957    -143.644
  H      532.326      68.294    -140.416
  H      532.668      66.587    -140.568
  H      532.101      67.491    -141.951

 6  7  8  9  10  11  12  13  14  15  16  26  31  32  33  34  35 0
 6-311+G(2d,p)
 ****
 36  37 0
 6-311+G(2d,p)
 ****
 1  2  3  4  5  17  18  19  20  21  22  23  24  25 0
 3-21G
 ****
 27  28  29  30  38  39  40  41  42  43  44  45 0
 3-21G
 ****


