%nproc=1
%NoSave
%Mem=1900MB
#P OB98/GEN NMR

erre ene a

0 1
  C        8.097    -120.893    -216.084
  O        9.327    -120.527    -216.696
  P       10.223    -119.415    -215.961
  C       10.728    -118.327    -218.265
  O       11.257    -118.891    -217.070
  C       11.777    -118.338    -219.373
  O       12.921    -117.553    -218.981
  C       12.323    -119.718    -219.713
  O       11.468    -120.432    -220.590
  C       13.616    -119.346    -220.420
  O       13.338    -118.950    -221.777
  C       14.094    -118.141    -219.604
  N       19.067    -118.756    -218.585
  C       18.413    -118.470    -219.730
  N       17.084    -118.334    -219.923
  C       16.412    -118.563    -218.782
  C       16.943    -118.901    -217.548
  C       18.341    -118.986    -217.463
  N       19.010    -119.248    -216.289
  N       15.940    -119.058    -216.617
  C       14.825    -118.813    -217.271
  N       15.058    -118.497    -218.580
  O       11.141    -120.283    -214.979
  O        9.453    -118.367    -215.231
  H       12.928    -119.720    -222.217
  H       11.454    -119.729    -214.237
  H       19.038    -118.323    -220.608
  H       13.834    -118.840    -216.839
  H       14.550    -117.367    -220.231
  H       14.327    -120.179    -220.471
  H       12.551    -120.290    -218.806
  H       11.334    -117.869    -220.261
  H       10.425    -117.295    -218.069
  H       20.008    -119.109    -216.272
  H       18.480    -119.218    -215.425
  H        9.846    -118.900    -218.569
  P       11.166    -121.964    -220.216
  C       12.345    -123.258    -222.139
  O       11.135    -122.742    -221.616
  O        9.635    -121.931    -219.755
  O       12.065    -122.525    -219.166
  H        9.446    -122.669    -219.145
  H       12.108    -124.002    -222.902
  H       12.939    -123.740    -221.356
  H       12.924    -122.453    -222.597
  H        7.610    -121.637    -216.679
  H        7.467    -120.031    -216.005
  H        8.288    -121.286    -215.107

 3  4  5  6  7  8  9  10  11  12  22  25  29  30  31  32 0
 6-311+G(2d,p)
 ****
 33  36  37 0
 6-311+G(2d,p)
 ****
 1  2  13  14  15  16  17  18  19  20  21  23  24  26 0
 3-21G
 ****
 27  28  34  35  38  39  40  41  42  43  44  45  46  47  48 0
 3-21G
 ****


