%nproc=1
%NoSave
%Mem=1900MB
#P OB98/GEN NMR

erre ene a

0 1
  C      941.791     510.186    -152.477
  O      943.200     510.301    -152.394
  H      941.412     511.005    -153.089
  H      941.344     510.267    -151.480
  H      941.504     509.238    -152.942
  P      944.022     509.152    -151.619
  C      946.128     510.373    -150.798
  O      945.580     509.517    -151.786
  C      947.379     511.067    -151.325
  O      948.353     510.055    -151.703
  C      947.135     511.944    -152.561
  O      947.959     513.113    -152.457
  C      947.592     511.093    -153.718
  O      948.012     511.868    -154.837
  C      948.733     510.294    -153.079
  N      949.670     508.207    -157.582
  C      949.589     509.533    -157.215
  N      949.747     510.448    -158.206
  N      949.360     509.935    -155.999
  C      949.230     508.916    -155.113
  C      949.298     507.565    -155.354
  C      949.531     507.132    -156.708
  O      949.604     505.976    -157.097
  N      949.086     506.839    -154.196
  C      948.897     507.764    -153.268
  N      948.958     509.032    -153.763
  O      943.671     507.751    -151.997
  O      943.737     509.448    -150.072
  H      948.252     511.245    -155.549
  H      943.047     508.844    -149.731
  H      949.847     507.957    -158.545
  H      948.691     507.555    -152.216
  H      949.690     510.839    -153.082
  H      946.780     510.429    -154.046
  H      949.944     510.211    -159.166
  H      946.078     512.251    -152.662
  H      949.715     511.435    -157.948
  H      947.834     511.654    -150.512
  H      946.390     509.768    -149.920
  H      945.383     511.129    -150.502
  P      947.264     514.546    -152.293
  C      948.849     515.844    -153.870
  O      948.385     515.675    -152.529
  O      946.429     514.720    -151.066
  O      946.367     514.670    -153.630
  H      945.591     515.224    -153.426
  H      949.587     516.618    -153.897
  H      948.027     516.112    -154.501
  H      949.280     514.928    -154.216

 6  7  8  9  10  11  12  13  14  15  26  29  33  34 0
 6-311+G(2d,p)
 ****
 36  38  39  40  41 0
 6-311+G(2d,p)
 ****
 1  2  3  4  5  16  17  18  19  20  21  22  23  24  25 0
 3-21G
 ****
 27  28  30  31  32  35  37  42  43  44  45  46  47 0
 3-21G
 ****
 48  49 0
 3-21G
 ****


