%nproc=1
%NoSave
%Mem=1900MB
#P OB98/GEN NMR

erre ene a

0 1
  C     -326.935    -206.529    -309.085
  O     -327.134    -207.345    -307.948
  H     -326.906    -205.484    -308.760
  H     -327.765    -206.652    -309.783
  H     -325.989    -206.768    -309.575
  P     -327.075    -208.937    -308.119
  C     -329.593    -208.886    -307.552
  O     -328.352    -209.546    -307.354
  C     -330.763    -209.824    -307.235
  O     -330.889    -210.789    -308.310
  C     -330.594    -210.599    -305.925
  O     -331.864    -210.724    -305.286
  C     -330.113    -211.961    -306.384
  O     -330.441    -212.994    -305.456
  C     -330.820    -212.109    -307.729
  N     -330.259    -216.955    -309.047
  C     -331.141    -216.370    -308.166
  N     -331.995    -217.200    -307.522
  N     -331.191    -215.084    -307.928
  C     -330.293    -214.373    -308.660
  C     -329.366    -214.836    -309.569
  C     -329.315    -216.263    -309.802
  O     -328.543    -216.839    -310.560
  N     -328.627    -213.806    -310.090
  C     -329.101    -212.723    -309.501
  N     -330.104    -213.019    -308.616
  O     -325.768    -209.564    -307.744
  O     -327.424    -209.186    -309.660
  H     -330.289    -213.851    -305.914
  H     -326.624    -209.419    -310.168
  H     -330.257    -217.951    -309.185
  H     -328.758    -211.714    -309.675
  H     -331.842    -212.497    -307.627
  H     -329.022    -211.948    -306.509
  H     -332.029    -218.195    -307.673
  H     -329.886    -210.118    -305.250
  H     -332.676    -216.790    -306.892
  H     -331.685    -209.231    -307.225
  H     -329.651    -208.564    -308.599
  H     -329.636    -207.996    -306.909
  P     -332.157    -209.869    -303.959
  C     -333.014    -211.680    -302.355
  O     -333.359    -210.553    -303.148
  O     -332.297    -208.391    -304.164
  O     -330.881    -210.195    -303.036
  H     -330.654    -209.397    -302.515
  H     -333.889    -212.051    -301.863
  H     -332.288    -211.393    -301.623
  H     -332.605    -212.445    -302.981

 6  7  8  9  10  11  12  13  14  15  26  29  33  34 0
 6-311+G(2d,p)
 ****
 36  38  39  40  41 0
 6-311+G(2d,p)
 ****
 1  2  3  4  5  16  17  18  19  20  21  22  23  24  25 0
 3-21G
 ****
 27  28  30  31  32  35  37  42  43  44  45  46  47 0
 3-21G
 ****
 48  49 0
 3-21G
 ****


