%nproc=1
%NoSave
%Mem=1900MB
#P OB98/GEN NMR

erre ene a

0 1
  C     -174.535     192.657     388.229
  O     -174.481     194.080     388.373
  P     -173.811     194.624     389.725
  C     -172.899     196.716     388.495
  O     -173.657     196.215     389.586
  C     -173.794     197.031     387.293
  O     -174.734     198.102     387.622
  C     -173.016     197.484     386.045
  O     -173.721     196.978     384.909
  C     -173.138     199.001     386.127
  O     -172.826     199.656     384.910
  C     -174.580     199.113     386.606
  N     -174.900     204.080     385.476
  C     -174.518     203.015     384.749
  N     -174.459     201.717     385.122
  C     -174.856     201.581     386.401
  C     -175.267     202.575     387.270
  C     -175.289     203.884     386.761
  N     -175.654     204.980     387.504
  N     -175.575     202.039     388.515
  C     -175.273     200.758     388.402
  N     -174.917     200.423     387.126
  O     -172.306     194.085     389.645
  O     -174.514     194.174     390.965
  H     -172.899     200.625     385.030
  H     -172.205     193.281     390.187
  H     -174.216     203.225     383.726
  H     -175.298     200.034     389.208
  H     -175.300     198.894     385.808
  H     -172.449     199.381     386.891
  H     -171.985     197.129     386.017
  H     -174.384     196.140     387.058
  H     -172.146     195.978     388.193
  H     -175.633     205.887     387.051
  H     -175.941     204.881     388.470
  H     -172.342     197.602     388.821
  P     -173.136     195.703     384.133
  C     -175.309     194.347     383.926
  O     -174.366     195.163     383.253
  O     -173.115     194.621     385.327
  O     -171.822     195.884     383.454
  H     -173.970     194.594     385.793
  H     -176.128     194.118     383.242
  H     -175.710     194.871     384.799
  H     -174.835     193.411     384.238
  H     -174.999     192.410     387.297
  H     -175.105     192.239     389.032
  H     -173.542     192.258     388.250

 3  4  5  6  7  8  9  10  11  12  22  25  29  30  31  32 0
 6-311+G(2d,p)
 ****
 33  36  37 0
 6-311+G(2d,p)
 ****
 1  2  13  14  15  16  17  18  19  20  21  23  24  26 0
 3-21G
 ****
 27  28  34  35  38  39  40  41  42  43  44  45  46  47  48 0
 3-21G
 ****


