%nproc=1
%NoSave
%Mem=1900MB
#P OB98/GEN NMR

erre ene a

0 1
  C     -116.285    -217.838    -698.466
  O     -114.952    -218.093    -698.931
  P     -113.891    -216.895    -698.826
  C     -113.364    -215.039    -697.076
  O     -113.907    -216.333    -697.321
  C     -113.024    -214.879    -695.592
  O     -114.202    -215.017    -694.771
  C     -112.061    -215.943    -695.086
  O     -110.733    -215.634    -695.479
  C     -112.285    -215.888    -693.576
  O     -111.404    -214.938    -692.944
  C     -113.760    -215.432    -693.465
  N     -114.621    -216.466    -692.915
  C     -114.168    -217.076    -691.733
  O     -113.090    -216.739    -691.226
  N     -114.944    -218.056    -691.163
  C     -116.047    -218.423    -691.738
  N     -116.766    -219.410    -691.131
  C     -116.541    -217.829    -693.000
  C     -115.788    -216.868    -693.528
  O     -114.579    -215.722    -699.669
  O     -112.540    -217.239    -699.364
  H     -111.667    -214.064    -693.305
  H     -113.903    -215.175    -700.109
  H     -117.465    -218.171    -693.441
  H     -116.067    -216.379    -694.454
  H     -113.842    -214.549    -692.808
  H     -112.094    -216.854    -693.110
  H     -112.353    -216.934    -695.462
  H     -112.596    -213.879    -695.433
  H     -116.394    -219.790    -690.265
  H     -114.082    -214.266    -697.375
  H     -117.636    -219.771    -691.493
  H     -112.475    -214.893    -697.701
  P     -110.136    -216.402    -696.755
  C     -109.718    -215.447    -699.101
  O     -110.625    -215.539    -698.018
  O     -111.088    -217.692    -696.847
  O     -108.692    -216.774    -696.719
  H     -110.766    -218.297    -697.541
  H     -110.238    -215.012    -699.960
  H     -109.334    -216.431    -699.381
  H     -108.883    -214.784    -698.836
  H     -116.882    -218.717    -698.595
  H     -116.711    -217.033    -699.027
  H     -116.257    -217.574    -697.429

 3  4  5  6  7  8  9  10  11  12  13  21  23  27  28  29  30  32 0
 6-311+G(2d,p)
 ****
 34  35 0
 6-311+G(2d,p)
 ****
 1  2  14  15  16  17  18  19  20  22  24  25  26 0
 3-21G
 ****
 31  33  36  37  38  39  40  41  42  43  44  45  46 0
 3-21G
 ****


