%nproc=1
%NoSave
%Mem=1900MB
#P OB98/GEN NMR

erre ene a

0 1
  C       72.406    -390.363    -237.948
  O       71.164    -389.691    -237.900
  H       73.203    -389.614    -238.022
  H       72.451    -391.009    -238.825
  H       72.567    -390.951    -237.037
  P       69.829    -390.546    -237.644
  C       69.084    -391.292    -240.001
  O       68.893    -390.369    -238.939
  C       68.212    -390.921    -241.205
  O       66.933    -390.435    -240.720
  C       68.817    -389.828    -242.098
  O       68.510    -390.112    -243.464
  C       68.097    -388.572    -241.657
  O       68.048    -387.584    -242.686
  C       66.723    -389.114    -241.278
  N       63.018    -385.731    -240.667
  C       63.369    -386.471    -241.767
  N       62.641    -386.276    -242.891
  N       64.354    -387.335    -241.788
  C       64.984    -387.454    -240.585
  C       64.728    -386.769    -239.414
  C       63.648    -385.802    -239.423
  O       63.304    -385.102    -238.478
  N       65.600    -387.148    -238.423
  C       66.377    -388.054    -238.987
  N       66.056    -388.257    -240.308
  O       69.147    -390.273    -236.338
  O       70.308    -392.068    -237.752
  H       67.401    -386.906    -242.397
  H       70.362    -392.483    -236.867
  H       62.259    -385.072    -240.709
  H       67.181    -388.578    -238.498
  H       66.052    -389.206    -242.141
  H       68.606    -388.135    -240.788
  H       61.854    -385.642    -242.944
  H       69.899    -389.749    -241.969
  H       62.857    -386.833    -243.712
  H       68.011    -391.832    -241.783
  H       68.814    -392.293    -239.645
  H       70.146    -391.293    -240.290
  P       69.699    -390.546    -244.459
  C       69.023    -389.135    -246.494
  O       69.175    -390.447    -245.970
  O       70.396    -391.826    -244.107
  O       70.716    -389.301    -244.362
  H       71.636    -389.636    -244.436
  H       68.670    -389.192    -247.503
  H       69.967    -388.631    -246.474
  H       68.317    -388.593    -245.900

 6  7  8  9  10  11  12  13  14  15  26  29  33  34 0
 6-311+G(2d,p)
 ****
 36  38  39  40  41 0
 6-311+G(2d,p)
 ****
 1  2  3  4  5  16  17  18  19  20  21  22  23  24  25 0
 3-21G
 ****
 27  28  30  31  32  35  37  42  43  44  45  46  47 0
 3-21G
 ****
 48  49 0
 3-21G
 ****


