%nproc=1
%NoSave
%Mem=1900MB
#P OB98/GEN NMR

erre ene a

0 1
  C      417.576    -890.290     193.163
  O      416.690    -891.280     193.694
  P      415.243    -890.930     194.303
  C      413.782    -892.180     192.561
  O      414.233    -892.120     193.922
  C      413.023    -893.470     192.300
  O      413.860    -894.630     192.575
  C      411.785    -893.700     193.165
  O      410.701    -892.860     192.792
  C      411.529    -895.180     192.950
  O      410.775    -895.420     191.756
  C      412.960    -895.740     192.782
  N      413.398    -896.540     193.916
  C      412.873    -897.850     193.995
  O      412.045    -898.240     193.184
  N      413.306    -898.670     194.999
  C      414.101    -898.190     195.926
  N      414.513    -899.050     196.899
  C      414.554    -896.780     195.963
  C      414.188    -896.030     194.937
  O      414.741    -889.570     193.946
  O      415.420    -891.080     195.900
  H      414.756    -890.510     196.339
  H      410.377    -896.300     191.849
  H      415.191    -896.430     196.766
  H      414.479    -894.990     194.860
  H      413.034    -896.350     191.866
  H      410.973    -895.630     193.785
  H      412.047    -893.520     194.211
  H      412.743    -893.500     191.239
  H      414.187    -900.000     196.845
  H      414.658    -892.140     191.897
  H      415.145    -898.790     197.644
  H      413.165    -891.300     192.354
  P      409.859    -892.190     193.979
  C      410.034    -889.640     193.478
  O      409.249    -890.800     193.420
  O      410.976    -891.710     195.015
  O      408.861    -893.100     194.631
  H      410.671    -891.870     195.929
  H      409.723    -888.963     192.686
  H      411.104    -889.870     193.369
  H      409.872    -889.145     194.445
  H      418.473    -890.762     192.819
  H      417.817    -889.580     193.927
  H      417.101    -889.788     192.346

 3  4  5  6  7  8  9  10  11  12  13  24  27  28  29  30  32 0
 6-311+G(2d,p)
 ****
 34  35 0
 6-311+G(2d,p)
 ****
 1  2  14  15  16  17  18  19  20  21  22  23  25  26 0
 3-21G
 ****
 31  33  36  37  38  39  40  41  42  43  44  45  46 0
 3-21G
 ****


