%nproc=1
%NoSave
%Mem=1900MB
#P OB98/GEN NMR

erre ene a

0 1
  C     -367.466    -437.207     519.028
  O     -367.002    -436.707     517.790
  H     -368.556    -437.090     519.067
  H     -367.024    -436.654     519.858
  H     -367.225    -438.272     519.115
  P     -365.418    -436.657     517.532
  C     -365.414    -434.228     516.631
  O     -364.980    -435.118     517.652
  C     -364.350    -433.160     516.351
  O     -364.342    -432.205     517.453
  C     -362.915    -433.722     516.228
  O     -362.193    -432.869     515.334
  C     -362.409    -433.557     517.653
  O     -361.012    -433.708     517.720
  C     -363.004    -432.187     517.996
  N     -362.999    -431.932     519.431
  C     -361.789    -431.536     519.988
  O     -360.776    -431.439     519.278
  N     -361.717    -431.289     521.334
  C     -362.767    -431.486     522.075
  N     -362.635    -431.242     523.403
  C     -364.067    -431.965     521.535
  C     -364.107    -432.155     520.214
  O     -364.945    -437.347     516.292
  O     -364.791    -437.314     518.845
  H     -360.728    -434.557     517.305
  H     -364.486    -438.220     518.650
  H     -364.900    -432.127     522.202
  H     -365.013    -432.504     519.727
  H     -362.444    -431.391     517.494
  H     -362.835    -434.327     518.304
  H     -362.897    -434.755     515.870
  H     -364.633    -432.605     515.447
  H     -361.729    -430.935     523.728
  H     -366.332    -433.752     516.977
  H     -363.374    -431.372     524.086
  H     -365.624    -434.791     515.713
  P     -362.019    -433.194     513.774
  C     -359.822    -434.534     513.613
  O     -361.251    -434.592     513.589
  O     -361.434    -432.073     512.977
  O     -363.509    -433.523     513.251
  H     -363.589    -433.256     512.309
  H     -359.423    -435.518     513.481
  H     -359.497    -434.140     514.553
  H     -359.477    -433.900     512.823

 6  7  8  9  10  11  12  13  14  15  16  26  30  31  32  33  35 0
 6-311+G(2d,p)
 ****
 37  38 0
 6-311+G(2d,p)
 ****
 1  2  3  4  5  17  18  19  20  21  22  23  24  25 0
 3-21G
 ****
 27  28  29  34  36  39  40  41  42  43  44  45  46 0
 3-21G
 ****


