%nproc=1
%NoSave
%Mem=1900MB
#P OB98/GEN NMR

erre ene a

0 1
  C     -170.370      39.847     -41.209
  O     -169.149      39.244     -41.587
  P     -169.138      38.012     -42.610
  C     -166.949      38.778     -43.716
  O     -167.620      37.723     -43.035
  C     -165.590      39.048     -43.076
  O     -165.736      39.827     -41.867
  C     -164.846      37.792     -42.650
  O     -164.325      37.081     -43.756
  C     -163.801      38.379     -41.710
  O     -162.696      38.922     -42.450
  C     -164.597      39.511     -41.027
  N     -165.013      39.163     -39.677
  C     -164.101      39.459     -38.658
  O     -162.988      39.909     -38.928
  N     -164.476      39.225     -37.358
  C     -165.602      38.634     -37.108
  N     -165.946      38.484     -35.801
  C     -166.517      38.159     -38.167
  C     -166.174      38.475     -39.415
  O     -170.097      38.121     -43.748
  O     -169.493      36.746     -41.693
  H     -170.215      36.242     -42.117
  H     -162.277      38.169     -42.914
  H     -167.411      37.612     -37.907
  H     -166.797      38.187     -40.254
  H     -163.996      40.426     -40.987
  H     -163.393      37.633     -41.021
  H     -165.520      37.140     -42.082
  H     -164.988      39.628     -43.789
  H     -165.303      38.839     -35.104
  H     -167.568      39.679     -43.660
  H     -166.909      38.345     -35.504
  H     -166.832      38.508     -44.771
  P     -165.086      35.733     -44.176
  C     -164.960      35.833     -46.761
  O     -164.469      35.248     -45.572
  O     -166.553      36.244     -44.566
  O     -165.140      34.691     -43.108
  H     -167.214      35.582     -44.291
  H     -164.230      35.672     -47.558
  H     -165.121      36.908     -46.642
  H     -165.900      35.351     -47.043
  H     -170.176      40.647     -40.525
  H     -170.997      39.119     -40.738
  H     -170.862      40.232     -42.078

 3  4  5  6  7  8  9  10  11  12  13  24  27  28  29  30  32 0
 6-311+G(2d,p)
 ****
 34  35 0
 6-311+G(2d,p)
 ****
 1  2  14  15  16  17  18  19  20  21  22  23  25  26 0
 3-21G
 ****
 31  33  36  37  38  39  40  41  42  43  44  45  46 0
 3-21G
 ****


