%nproc=1
%NoSave
%Mem=1900MB
#P OB98/GEN NMR

erre ene a

0 1
  C      -81.415     102.789    -192.724
  O      -80.202     102.617    -193.446
  P      -78.825     102.897    -192.664
  C      -78.326     105.182    -193.793
  O      -78.684     104.494    -192.601
  C      -77.558     106.460    -193.464
  O      -78.369     107.331    -192.649
  C      -76.274     106.244    -192.679
  O      -75.188     105.873    -193.517
  C      -76.048     107.632    -192.104
  O      -75.474     108.489    -193.110
  C      -77.478     108.079    -191.779
  N      -78.561     110.326    -187.315
  C      -78.152     110.829    -188.498
  N      -77.877     110.163    -189.641
  C      -78.017     108.838    -189.463
  C      -78.387     108.180    -188.303
  C      -78.679     108.982    -187.188
  N      -79.120     108.468    -185.989
  N      -78.419     106.818    -188.509
  C      -78.084     106.654    -189.773
  N      -77.842     107.850    -190.396
  O      -77.710     102.470    -193.734
  O      -78.673     102.169    -191.373
  H      -76.065     108.449    -193.888
  H      -76.877     102.248    -193.275
  H      -78.047     111.909    -188.539
  H      -78.016     105.702    -190.277
  H      -77.639     109.142    -191.990
  H      -75.359     107.634    -191.252
  H      -76.422     105.528    -191.860
  H      -77.349     106.981    -194.408
  H      -79.233     105.443    -194.342
  H      -79.483     109.114    -185.304
  H      -79.397     107.495    -185.961
  H      -77.713     104.521    -194.417
  P      -74.135     104.822    -192.910
  C      -72.318     106.496    -192.105
  O      -73.366     105.614    -191.749
  O      -73.046     104.687    -194.078
  O      -74.732     103.508    -192.535
  H      -72.594     103.827    -194.024
  H      -72.123     107.165    -191.263
  H      -72.586     107.099    -192.976
  H      -71.411     105.923    -192.315
  H      -82.245     102.570    -193.363
  H      -81.486     103.800    -192.381
  H      -81.427     102.126    -191.884

 3  4  5  6  7  8  9  10  11  12  22  25  29  30  31  32 0
 6-311+G(2d,p)
 ****
 33  36  37 0
 6-311+G(2d,p)
 ****
 1  2  13  14  15  16  17  18  19  20  21  23  24  26 0
 3-21G
 ****
 27  28  34  35  38  39  40  41  42  43  44  45  46  47  48 0
 3-21G
 ****


