%nproc=1
%NoSave
%Mem=1900MB
#P OB98/GEN NMR

erre ene a

0 1
  C      209.555    -105.154    -245.439
  O      210.331    -104.472    -246.405
  P      210.994    -105.321    -247.593
  C      208.789    -105.154    -249.012
  O      209.782    -105.971    -248.421
  C      208.830    -105.290    -250.538
  O      210.087    -104.748    -251.025
  C      208.722    -106.732    -251.050
  O      207.987    -106.690    -252.279
  C      210.173    -107.105    -251.310
  O      210.306    -108.176    -252.228
  C      210.724    -105.767    -251.817
  N      212.180    -105.661    -251.717
  C      212.855    -105.014    -252.745
  O      212.308    -104.546    -253.742
  N      214.220    -104.942    -252.609
  C      214.958    -105.499    -251.605
  O      216.180    -105.420    -251.540
  C      214.192    -106.212    -250.571
  C      212.863    -106.249    -250.669
  O      211.618    -106.551    -246.784
  O      211.967    -104.546    -248.414
  H      211.070    -106.824    -246.027
  H      211.210    -108.153    -252.595
  H      214.728    -104.446    -253.323
  H      214.743    -106.680    -249.765
  H      212.277    -106.769    -249.919
  H      210.416    -105.602    -252.858
  H      210.647    -107.400    -250.370
  H      208.223    -107.393    -250.339
  H      208.025    -104.671    -250.958
  H      208.968    -104.109    -248.742
  H      207.807    -105.440    -248.622
  P      206.791    -107.753    -252.482
  C      204.802    -106.328    -251.551
  O      205.671    -107.427    -251.386
  O      207.487    -109.077    -251.903
  O      206.326    -107.918    -253.892
  H      207.914    -108.931    -251.041
  H      203.931    -106.474    -250.908
  H      204.464    -106.241    -252.585
  H      205.315    -105.408    -251.250
  H      209.185    -104.454    -244.719
  H      210.161    -105.885    -244.946
  H      208.732    -105.639    -245.920

 3  4  5  6  7  8  9  10  11  12  13  24  28  29  30  31  32 0
 6-311+G(2d,p)
 ****
 33  34 0
 6-311+G(2d,p)
 ****
 1  2  14  15  16  17  18  19  20  21  22  23  25  26  27 0
 3-21G
 ****
 35  36  37  38  39  40  41  42  43  44  45 0
 3-21G
 ****


