%nproc=1
%NoSave
%Mem=1900MB
#P OB98/GEN NMR

erre ene a

0 1
  C        2.925    -831.395     981.830
  O        2.679    -830.579     982.980
  P        1.326    -830.827     983.821
  C        2.589    -832.320     985.552
  O        1.492    -832.191     984.654
  C        2.097    -832.741     986.943
  O        1.488    -834.052     986.913
  C        3.206    -832.841     987.968
  O        3.521    -831.560     988.514
  C        2.550    -833.709     989.023
  O        1.662    -832.919     989.841
  C        1.749    -834.701     988.182
  N        1.243    -839.794     987.902
  C        0.362    -838.815     988.216
  N        0.582    -837.483     988.290
  C        1.848    -837.190     987.976
  C        2.865    -838.083     987.634
  C        2.518    -839.448     987.605
  N        3.413    -840.446     987.285
  N        4.032    -837.408     987.395
  C        3.745    -836.147     987.565
  N        2.441    -835.956     987.932
  O        0.271    -831.210     982.681
  O        0.893    -829.638     984.610
  H        2.172    -832.141     990.150
  H       -0.610    -830.875     982.931
  H       -0.658    -839.142     988.447
  H        4.447    -835.321     987.432
  H        0.781    -834.948     988.631
  H        3.280    -834.172     989.708
  H        4.094    -833.337     987.554
  H        1.348    -832.017     987.271
  H        3.118    -831.365     985.619
  H        3.085    -841.391     987.249
  H        4.362    -840.181     987.034
  H        3.292    -833.044     985.137
  P        5.043    -831.313     988.979
  C        5.889    -830.238     986.761
  O        5.913    -831.359     987.628
  O        5.420    -832.684     989.726
  O        5.239    -830.116     989.852
  H        6.075    -832.507     990.421
  H        6.738    -830.307     986.080
  H        5.956    -829.307     987.317
  H        4.966    -830.250     986.173
  H        3.855    -831.111     981.383
  H        2.134    -831.261     981.122
  H        2.970    -832.423     982.125

 3  4  5  6  7  8  9  10  11  12  22  25  29  30  31  32 0
 6-311+G(2d,p)
 ****
 33  36  37 0
 6-311+G(2d,p)
 ****
 1  2  13  14  15  16  17  18  19  20  21  23  24  26 0
 3-21G
 ****
 27  28  34  35  38  39  40  41  42  43  44  45  46  47  48 0
 3-21G
 ****


