%nproc=1
%NoSave
%Mem=1900MB
#P OB98/GEN NMR

erre ene a

0 1
  C      335.385    -434.146    -459.346
  O      334.597    -435.225    -459.801
  H      336.017    -434.494    -458.524
  H      334.744    -433.338    -458.978
  H      336.026    -433.777    -460.150
  P      333.577    -434.910    -461.002
  C      334.552    -437.002    -462.186
  O      334.177    -435.634    -462.301
  C      336.069    -437.153    -462.311
  O      336.744    -436.495    -461.210
  C      336.559    -438.592    -462.328
  O      336.453    -439.156    -463.621
  C      338.009    -438.424    -461.885
  O      338.847    -438.008    -462.977
  C      337.886    -437.308    -460.830
  N      340.308    -438.291    -456.515
  C      340.782    -437.737    -457.693
  N      342.098    -437.460    -457.746
  N      340.022    -437.495    -458.728
  C      338.731    -437.859    -458.544
  C      338.146    -438.394    -457.420
  C      338.994    -438.635    -456.269
  O      338.628    -439.058    -455.173
  N      336.802    -438.618    -457.607
  C      336.584    -438.247    -458.858
  N      337.724    -437.796    -459.470
  O      333.824    -433.353    -461.303
  O      332.141    -435.187    -460.713
  H      338.753    -438.633    -463.711
  H      332.995    -432.958    -461.626
  H      340.945    -438.434    -455.741
  H      335.627    -438.279    -459.355
  H      338.765    -436.649    -460.828
  H      338.420    -439.358    -461.501
  H      342.763    -437.920    -457.133
  H      336.014    -439.198    -461.585
  H      342.453    -437.073    -458.613
  H      336.372    -436.631    -463.233
  H      334.066    -437.578    -462.977
  H      334.217    -437.382    -461.210
  P      335.163    -440.082    -463.928
  C      334.771    -439.132    -466.314
  O      334.277    -439.280    -464.991
  O      334.309    -439.980    -462.576
  O      335.493    -441.493    -464.288
  H      333.655    -440.708    -462.539
  H      334.067    -438.576    -466.897
  H      334.913    -440.098    -466.752
  H      335.705    -438.611    -466.290

 6  7  8  9  10  11  12  13  14  15  26  29  33  34 0
 6-311+G(2d,p)
 ****
 36  38  39  40  41 0
 6-311+G(2d,p)
 ****
 1  2  3  4  5  16  17  18  19  20  21  22  23  24  25 0
 3-21G
 ****
 27  28  30  31  32  35  37  42  43  44  45  46  47 0
 3-21G
 ****
 48  49 0
 3-21G
 ****


