%nproc=1
%NoSave
%Mem=1900MB
#P OB98/GEN NMR

erre ene a

0 1
  C     -252.493     471.712     560.694
  O     -251.462     471.835     561.683
  P     -249.919     471.752     561.255
  C     -249.499     469.320     561.942
  O     -249.558     470.238     560.849
  C     -249.039     467.915     561.527
  O     -248.675     467.130     562.693
  C     -250.067     467.099     560.737
  O     -249.317     466.288     559.824
  C     -250.710     466.249     561.820
  O     -251.388     465.114     561.294
  C     -249.489     465.935     562.704
  N     -249.866     465.552     564.061
  C     -250.180     464.211     564.276
  O     -250.174     463.413     563.339
  N     -250.523     463.802     565.544
  C     -250.647     464.683     566.491
  N     -251.011     464.224     567.716
  C     -250.421     466.131     566.294
  C     -250.027     466.483     565.068
  O     -248.964     472.376     562.232
  O     -249.856     472.535     559.848
  H     -251.730     464.590     562.041
  H     -248.985     472.948     559.747
  H     -250.564     466.828     567.098
  H     -249.820     467.523     564.814
  H     -248.896     465.122     562.270
  H     -251.436     466.846     562.382
  H     -250.810     467.712     560.210
  H     -248.115     468.031     560.926
  H     -251.189     463.233     567.808
  H     -250.498     469.254     562.391
  H     -251.252     464.824     568.486
  H     -248.831     469.719     562.710
  P     -249.522     466.378     558.240
  C     -251.764     465.134     558.224
  O     -251.106     466.363     557.973
  O     -248.744     465.381     557.449
  O     -249.098     467.881     557.857
  H     -248.924     467.934     556.893
  H     -252.838     465.292     558.216
  H     -251.480     464.725     559.211
  H     -251.493     464.413     557.438
  H     -253.450     471.792     561.165
  H     -252.412     470.761     560.211
  H     -252.386     472.491     559.968

 3  4  5  6  7  8  9  10  11  12  13  23  27  28  29  30  32 0
 6-311+G(2d,p)
 ****
 34  35 0
 6-311+G(2d,p)
 ****
 1  2  14  15  16  17  18  19  20  21  22  24  25  26 0
 3-21G
 ****
 31  33  36  37  38  39  40  41  42  43  44  45  46 0
 3-21G
 ****


