%nproc=1
%NoSave
%Mem=1900MB
#P OB98/GEN NMR

erre ene a

0 1
  C     -304.614    -391.732     106.395
  O     -303.749    -391.063     105.460
  P     -304.042    -391.203     103.888
  C     -301.911    -392.472     103.072
  O     -302.666    -391.269     103.063
  C     -300.403    -392.184     103.061
  O     -300.075    -391.266     101.977
  C     -299.868    -391.556     104.358
  O     -298.525    -392.032     104.536
  C     -299.852    -390.074     104.021
  O     -298.998    -389.317     104.866
  C     -299.399    -390.130     102.559
  N     -299.676    -388.914     101.793
  C     -298.782    -387.853     101.908
  O     -297.806    -387.848     102.658
  N     -299.063    -386.751     101.142
  C     -300.147    -386.598     100.322
  O     -300.357    -385.569      99.685
  C     -301.072    -387.739     100.266
  C     -300.798    -388.823     100.991
  O     -304.584    -389.735     103.519
  O     -305.057    -392.234     103.515
  H     -298.944    -388.421     104.497
  H     -305.383    -389.816     102.962
  H     -298.417    -385.980     101.204
  H     -301.940    -387.651      99.622
  H     -301.460    -389.679     100.950
  H     -298.326    -390.349     102.515
  H     -300.867    -389.671     104.123
  H     -300.476    -391.793     105.236
  H     -299.879    -393.124     102.851
  H     -302.166    -393.062     102.190
  H     -302.180    -393.052     103.965
  P     -298.149    -392.747     105.931
  C     -295.959    -391.386     106.383
  O     -296.558    -392.632     106.100
  O     -298.365    -394.286     105.526
  O     -298.985    -392.318     107.092
  H     -297.973    -394.505     104.664
  H     -296.547    -390.813     107.107
  H     -295.858    -390.809     105.459
  H     -294.966    -391.562     106.798
  H     -304.280    -391.536     107.393
  H     -304.591    -392.786     106.211
  H     -305.614    -391.371     106.276

 3  4  5  6  7  8  9  10  11  12  13  23  28  29  30  31  32 0
 6-311+G(2d,p)
 ****
 33  34 0
 6-311+G(2d,p)
 ****
 1  2  14  15  16  17  18  19  20  21  22  24  25  26 0
 3-21G
 ****
 27  35  36  37  38  39  40  41  42  43  44  45 0
 3-21G
 ****


