%nproc=1
%NoSave
%Mem=1900MB
#P OB98/GEN NMR

erre ene a

0 1
  C     -397.290      45.127     173.836
  O     -396.252      45.053     172.877
  H     -397.079      45.919     174.558
  H     -398.227      45.356     173.322
  H     -397.396      44.168     174.353
  P     -394.789      44.696     173.429
  C     -393.600      44.646     171.123
  O     -393.750      45.308     172.369
  C     -393.460      45.666     169.998
  O     -394.743      46.248     169.691
  C     -392.546      46.844     170.316
  O     -391.173      46.504     170.159
  C     -392.995      47.846     169.263
  O     -392.401      47.519     167.993
  C     -394.510      47.598     169.211
  N     -395.448      52.539     170.178
  C     -394.690      51.928     169.237
  N     -394.507      50.607     169.031
  C     -395.225      49.887     169.907
  C     -396.063      50.363     170.904
  C     -396.161      51.760     171.031
  N     -396.892      52.368     172.042
  N     -396.623      49.314     171.616
  C     -396.110      48.232     171.070
  N     -395.269      48.523     170.031
  O     -394.696      43.113     173.186
  O     -394.544      45.053     174.858
  H     -391.438      47.463     168.137
  H     -394.919      42.648     174.015
  H     -394.152      52.590     168.567
  H     -396.322      47.217     171.393
  H     -394.908      47.653     168.191
  H     -392.711      48.876     169.498
  H     -392.749      47.256     171.314
  H     -393.115      45.137     169.098
  H     -394.479      44.018     170.933
  H     -396.526      53.276     172.310
  H     -397.173      51.747     172.790
  H     -392.710      44.007     171.170
  P     -390.088      47.428     170.889
  C     -388.113      45.811     170.443
  O     -388.672      47.100     170.202
  O     -389.973      46.762     172.340
  O     -390.441      48.874     170.989
  H     -390.155      47.431     173.032
  H     -387.177      45.727     169.931
  H     -388.785      45.059     170.086
  H     -387.957      45.680     171.494

 6  7  8  9  10  11  12  13  14  15  25  28  32  33  34  35 0
 6-311+G(2d,p)
 ****
 36  39  40 0
 6-311+G(2d,p)
 ****
 1  2  3  4  5  16  17  18  19  20  21  22  23  24 0
 3-21G
 ****
 26  27  29  30  31  37  38  41  42  43  44  45  46  47  48 0
 3-21G
 ****


