%nproc=1
%NoSave
%Mem=1900MB
#P OB98/GEN NMR

erre ene a

0 1
  C      345.733     293.775    -491.552
  O      344.325     293.840    -491.500
  H      346.072     294.275    -492.470
  H      346.073     292.740    -491.581
  H      346.177     294.290    -490.693
  P      343.549     293.019    -490.356
  C      341.889     294.965    -490.090
  O      342.034     293.580    -490.406
  C      340.581     295.527    -490.659
  O      340.783     295.913    -492.037
  C      339.403     294.544    -490.616
  O      338.242     295.212    -490.107
  C      339.198     294.165    -492.075
  O      337.867     293.725    -492.338
  C      339.614     295.460    -492.780
  N      339.921     295.272    -494.191
  C      338.823     295.295    -495.070
  O      337.682     295.454    -494.634
  N      339.054     295.128    -496.412
  C      340.253     294.896    -496.845
  N      340.416     294.727    -498.193
  C      341.427     294.813    -495.951
  C      341.198     295.013    -494.648
  O      344.192     293.062    -489.009
  O      343.401     291.538    -490.950
  H      337.247     294.453    -492.097
  H      343.229     290.905    -490.213
  H      342.414     294.603    -496.353
  H      342.003     294.981    -493.919
  H      338.839     296.227    -492.688
  H      339.883     293.356    -492.347
  H      339.599     293.672    -490.001
  H      340.343     296.452    -490.121
  H      339.576     294.790    -498.763
  H      342.751     295.505    -490.498
  H      341.305     294.535    -498.630
  H      341.878     295.066    -488.999
  P      337.986     295.060    -488.524
  C      336.912     297.410    -488.242
  O      336.734     295.999    -488.137
  O      339.245     295.810    -487.875
  O      337.878     293.648    -488.057
  H      339.911     295.165    -487.589
  H      336.008     297.906    -487.957
  H      337.155     297.665    -489.253
  H      337.707     297.718    -487.596

 6  7  8  9  10  11  12  13  14  15  16  26  30  31  32  33  35 0
 6-311+G(2d,p)
 ****
 37  38 0
 6-311+G(2d,p)
 ****
 1  2  3  4  5  17  18  19  20  21  22  23  24  25 0
 3-21G
 ****
 27  28  29  34  36  39  40  41  42  43  44  45  46 0
 3-21G
 ****


