%nproc=1
%NoSave
%Mem=1900MB
#P OB98/GEN NMR

erre ene a

0 1
  C      587.275    -486.919     122.752
  O      588.558    -486.327     122.682
  H      586.749    -486.806     121.800
  H      587.397    -487.985     122.964
  H      586.697    -486.460     123.567
  P      588.605    -484.781     122.271
  C      587.707    -483.448     120.232
  O      588.156    -484.695     120.728
  C      586.687    -483.659     119.121
  O      585.660    -484.577     119.543
  C      585.938    -482.396     118.690
  O      586.721    -481.581     117.827
  C      584.747    -483.004     117.963
  O      585.142    -483.381     116.626
  C      584.457    -484.257     118.799
  N      579.613    -485.583     119.895
  C      580.440    -485.938     118.870
  N      581.709    -485.536     118.639
  C      582.124    -484.701     119.611
  C      581.399    -484.263     120.696
  C      580.090    -484.730     120.833
  N      579.253    -484.364     121.858
  N      582.163    -483.418     121.487
  C      583.337    -483.356     120.878
  N      583.352    -484.109     119.729
  O      590.170    -484.449     122.212
  O      587.879    -483.847     123.193
  H      585.399    -482.558     116.174
  H      590.316    -483.538     122.527
  H      580.016    -486.626     118.146
  H      584.192    -482.787     121.229
  H      584.240    -485.130     118.159
  H      583.902    -482.323     117.871
  H      585.573    -481.833     119.564
  H      587.204    -484.104     118.255
  H      588.561    -482.890     119.836
  H      578.404    -484.883     122.006
  H      579.617    -483.731     122.563
  H      587.259    -482.873     121.051
  P      586.160    -480.117     117.488
  C      583.935    -479.281     116.451
  O      584.854    -480.348     116.575
  O      587.238    -479.551     116.452
  O      585.983    -479.209     118.659
  H      587.237    -478.577     116.475
  H      583.125    -479.580     115.819
  H      584.428    -478.434     116.022
  H      583.557    -479.022     117.418

 6  7  8  9  10  11  12  13  14  15  25  28  32  33  34  35 0
 6-311+G(2d,p)
 ****
 36  39  40 0
 6-311+G(2d,p)
 ****
 1  2  3  4  5  16  17  18  19  20  21  22  23  24 0
 3-21G
 ****
 26  27  29  30  31  37  38  41  42  43  44  45  46  47  48 0
 3-21G
 ****


