%nproc=1
%NoSave
%Mem=1900MB
#P OB98/GEN NMR

erre ene a

0 1
  C     -275.480     272.276    -177.861
  O     -276.499     271.561    -178.534
  P     -277.860     271.175    -177.793
  C     -278.157     268.627    -177.220
  O     -277.597     269.881    -176.895
  C     -277.430     268.054    -178.443
  O     -276.006     268.246    -178.310
  C     -277.691     266.559    -178.605
  O     -278.769     266.336    -179.504
  C     -276.361     266.043    -179.122
  O     -276.247     266.266    -180.542
  C     -275.362     266.945    -178.354
  N     -274.999     266.565    -176.974
  C     -273.684     266.698    -176.549
  O     -272.777     267.145    -177.250
  N     -273.424     266.265    -175.268
  C     -274.348     265.770    -174.393
  O     -274.072     265.169    -173.362
  C     -275.749     265.910    -174.807
  C     -276.008     266.271    -176.063
  O     -278.774     270.615    -178.982
  O     -278.526     272.284    -177.048
  H     -275.381     265.913    -180.817
  H     -279.392     271.304    -179.291
  H     -272.446     266.225    -175.001
  H     -276.522     265.662    -174.090
  H     -277.036     266.350    -176.402
  H     -274.425     267.057    -178.920
  H     -276.269     264.968    -178.975
  H     -277.890     266.099    -177.630
  H     -277.761     268.598    -179.339
  H     -279.228     268.736    -177.429
  H     -278.065     267.941    -176.368
  P     -279.437     264.883    -179.589
  C     -278.711     263.460    -181.597
  O     -278.351     263.960    -180.322
  O     -280.814     264.837    -180.170
  O     -279.416     264.381    -178.064
  H     -280.290     264.536    -177.650
  H     -277.832     263.009    -182.059
  H     -279.076     264.269    -182.238
  H     -279.490     262.698    -181.488
  H     -274.657     272.434    -178.526
  H     -275.150     271.713    -177.013
  H     -275.863     273.221    -177.536

 3  4  5  6  7  8  9  10  11  12  13  23  28  29  30  31  32 0
 6-311+G(2d,p)
 ****
 33  34 0
 6-311+G(2d,p)
 ****
 1  2  14  15  16  17  18  19  20  21  22  24  25  26  27 0
 3-21G
 ****
 35  36  37  38  39  40  41  42  43  44  45 0
 3-21G
 ****


