%nproc=1
%NoSave
%Mem=1900MB
#P OB98/GEN NMR

erre ene a

0 1
  C     -202.495     267.846    -137.085
  O     -201.483     268.782    -136.738
  P     -201.685     270.321    -137.146
  C     -201.079     270.085    -139.717
  O     -202.006     270.426    -138.708
  C     -201.340     270.955    -140.961
  O     -202.534     270.501    -141.636
  C     -201.537     272.430    -140.632
  O     -200.307     273.131    -140.566
  C     -202.433     272.885    -141.771
  O     -201.660     273.078    -142.969
  C     -203.371     271.659    -141.922
  N     -204.578     271.598    -141.065
  C     -205.844     271.719    -141.630
  O     -206.048     271.888    -142.837
  N     -206.902     271.635    -140.770
  C     -206.843     271.273    -139.452
  O     -207.832     271.159    -138.739
  C     -205.500     271.010    -138.934
  C     -204.444     271.193    -139.742
  O     -200.221     270.945    -137.012
  O     -202.686     271.047    -136.307
  H     -202.289     273.227    -143.697
  H     -200.200     271.619    -136.307
  H     -207.819     271.792    -141.148
  H     -205.406     270.678    -137.906
  H     -203.444     271.002    -139.368
  H     -203.719     271.569    -142.960
  H     -202.893     273.842    -141.549
  H     -202.104     272.540    -139.698
  H     -200.490     270.833    -141.647
  H     -201.160     269.026    -139.975
  H     -200.061     270.246    -139.351
  P     -199.866     273.833    -139.194
  C     -200.303     276.130    -140.250
  O     -200.605     275.257    -139.180
  O     -198.398     273.864    -138.919
  O     -200.668     273.013    -138.074
  H     -200.101     272.302    -137.686
  H     -200.985     276.986    -140.202
  H     -200.436     275.620    -141.211
  H     -199.277     276.486    -140.163
  H     -202.212     266.872    -136.745
  H     -202.618     267.831    -138.148
  H     -203.417     268.130    -136.623

 3  4  5  6  7  8  9  10  11  12  13  23  28  29  30  31  32 0
 6-311+G(2d,p)
 ****
 33  34 0
 6-311+G(2d,p)
 ****
 1  2  14  15  16  17  18  19  20  21  22  24  25  26  27 0
 3-21G
 ****
 35  36  37  38  39  40  41  42  43  44  45 0
 3-21G
 ****


