%nproc=1
%NoSave
%Mem=1900MB
#P OB98/GEN NMR

erre ene a

0 1
  C      981.530    2289.565    -160.490
  O      982.018    2288.252    -160.887
  P      983.287    2288.006    -161.824
  C      984.665    2286.697    -159.993
  O      984.564    2287.827    -160.871
  C      985.521    2286.959    -158.762
  O      984.935    2287.976    -157.939
  C      985.611    2285.673    -157.897
  O      986.585    2284.689    -158.212
  C      985.702    2286.192    -156.434
  O      987.071    2286.319    -155.996
  C      985.073    2287.596    -156.546
  N      981.993    2289.891    -153.157
  C      983.334    2290.160    -153.442
  N      983.940    2291.110    -152.707
  N      983.970    2289.524    -154.358
  C      983.320    2288.488    -154.940
  C      981.994    2288.147    -154.723
  C      981.230    2288.899    -153.767
  O      980.051    2288.749    -153.492
  N      981.620    2287.094    -155.522
  C      982.718    2286.753    -156.194
  N      983.786    2287.606    -155.862
  O      983.411    2288.935    -162.952
  O      983.017    2286.518    -162.396
  H      987.540    2286.989    -156.546
  H      983.398    2286.521    -163.278
  H      981.529    2290.433    -152.436
  H      982.793    2285.954    -156.898
  H      985.712    2288.382    -156.072
  H      985.220    2285.507    -155.777
  H      983.525    2291.558    -151.919
  H      984.634    2285.196    -157.947
  H      984.976    2291.157    -152.765
  H      986.514    2287.342    -159.048
  H      985.073    2285.881    -160.600
  H      983.632    2286.378    -159.692
  P      986.325    2283.367    -159.120
  C      986.739    2284.715    -161.281
  O      985.862    2283.883    -160.548
  O      984.976    2282.704    -158.496
  O      987.435    2282.374    -159.174
  H      984.880    2281.820    -158.821
  H      986.167    2285.238    -162.103
  H      987.492    2284.045    -161.746
  H      987.240    2285.454    -160.616
  H      980.670    2289.451    -159.863
  H      981.265    2290.125    -161.362
  H      982.297    2290.083    -159.953

 3  4  5  6  7  8  9  10  11  12  23  26  30  31 0
 6-311+G(2d,p)
 ****
 33  35  36  37  38 0
 6-311+G(2d,p)
 ****
 1  2  13  14  15  16  17  18  19  20  21  22  24  25 0
 3-21G
 ****
 27  28  29  32  34  39  40  41  42  43  44  45  46  47  48  49 0
 3-21G
 ****


