%nproc=1
%NoSave
%Mem=1900MB
#P OB98/GEN NMR

erre ene a

0 1
  C      -71.720     253.611    -258.021
  O      -71.117     252.442    -258.549
  P      -71.294     251.034    -257.806
  C      -73.349     250.762    -259.346
  O      -72.829     250.625    -258.025
  C      -74.570     249.868    -259.555
  O      -74.196     248.473    -259.523
  C      -75.639     250.027    -258.483
  O      -76.390     251.214    -258.714
  C      -76.431     248.742    -258.667
  O      -77.378     248.851    -259.737
  C      -75.315     247.729    -259.009
  N      -74.945     246.892    -257.878
  C      -76.010     246.298    -257.189
  O      -77.167     246.514    -257.528
  N      -75.729     245.494    -256.108
  C      -74.484     245.339    -255.728
  N      -74.276     244.540    -254.641
  C      -73.353     245.975    -256.408
  C      -73.647     246.736    -257.465
  O      -70.812     250.989    -256.392
  O      -70.516     250.016    -258.777
  H      -76.852     249.011    -260.544
  H      -69.537     250.117    -258.685
  H      -72.341     245.827    -256.049
  H      -72.868     247.250    -258.018
  H      -75.649     247.064    -259.835
  H      -76.997     248.474    -257.760
  H      -75.180     250.050    -257.495
  H      -74.985     250.088    -260.546
  H      -75.086     244.142    -254.181
  H      -72.554     250.464    -260.054
  H      -73.361     244.383    -254.246
  H      -73.598     251.812    -259.534
  P      -76.970     252.047    -257.464
  C      -74.834     253.474    -257.520
  O      -75.729     252.739    -256.718
  O      -77.909     251.291    -256.579
  O      -77.713     253.282    -258.152
  H      -78.576     253.406    -257.712
  H      -74.260     254.148    -256.897
  H      -75.384     254.060    -258.277
  H      -74.149     252.786    -258.037
  H      -71.491     254.446    -258.650
  H      -71.343     253.793    -257.036
  H      -72.781     253.477    -257.978

 3  4  5  6  7  8  9  10  11  12  13  23  27  28  29  30  32 0
 6-311+G(2d,p)
 ****
 34  35 0
 6-311+G(2d,p)
 ****
 1  2  14  15  16  17  18  19  20  21  22  24  25  26 0
 3-21G
 ****
 31  33  36  37  38  39  40  41  42  43  44  45  46 0
 3-21G
 ****


