%nproc=1
%NoSave
%Mem=1900MB
#P OB98/GEN NMR

erre ene a

0 1
  C      137.680     180.502      21.174
  O      137.065     180.533      22.465
  P      137.993     180.095      23.701
  C      137.478     177.575      23.371
  O      138.477     178.585      23.441
  C      138.100     176.179      23.262
  O      138.680     175.966      21.941
  C      139.212     175.916      24.284
  O      139.134     174.529      24.640
  C      140.474     176.148      23.473
  O      141.612     175.552      24.091
  C      140.044     175.537      22.139
  N      144.458     174.717      19.829
  C      143.966     174.207      21.015
  N      144.744     173.307      21.653
  N      142.812     174.547      21.529
  C      142.125     175.426      20.759
  C      142.497     175.992      19.561
  C      143.790     175.632      19.022
  O      144.270     176.050      17.974
  N      141.513     176.820      19.067
  C      140.584     176.798      20.008
  N      140.881     175.930      21.022
  O      136.952     179.963      24.908
  O      139.082     181.068      24.007
  H      142.401     175.810      23.567
  H      136.992     180.757      25.473
  H      145.361     174.434      19.489
  H      139.670     177.368      19.991
  H      140.060     174.438      22.163
  H      140.663     177.222      23.366
  H      145.622     172.962      21.288
  H      139.162     176.541      25.180
  H      144.389     172.885      22.504
  H      137.300     175.439      23.389
  H      136.834     177.748      22.505
  H      136.831     177.653      24.251
  P      138.607     174.161      26.106
  C      140.680     172.997      27.130
  O      139.875     174.157      27.082
  O      138.231     172.609      25.977
  O      137.431     174.960      26.564
  H      137.418     172.426      26.487
  H      141.690     173.280      27.430
  H      140.730     172.496      26.158
  H      140.273     172.305      27.870
  H      136.972     180.811      20.434
  H      138.009     179.507      20.959
  H      138.520     181.165      21.163

 3  4  5  6  7  8  9  10  11  12  23  26  30  31 0
 6-311+G(2d,p)
 ****
 33  35  36  37  38 0
 6-311+G(2d,p)
 ****
 1  2  13  14  15  16  17  18  19  20  21  22  24  25 0
 3-21G
 ****
 27  28  29  32  34  39  40  41  42  43  44  45  46  47  48  49 0
 3-21G
 ****


