%nproc=1
%NoSave
%Mem=1900MB
#P OB98/GEN NMR

erre ene a

0 1
  C      126.276     214.806    -240.626
  O      125.248     215.783    -240.818
  P      125.355     216.722    -242.113
  C      125.346     218.976    -240.806
  O      126.046     218.103    -241.687
  C      125.929     220.390    -240.890
  O      127.346     220.384    -240.640
  C      125.768     221.021    -242.261
  O      124.447     221.494    -242.442
  C      126.819     222.126    -242.226
  O      126.280     223.356    -241.716
  C      127.891     221.556    -241.270
  N      129.145     221.260    -241.946
  C      130.242     222.036    -241.566
  O      130.113     222.928    -240.722
  N      131.455     221.802    -242.171
  C      131.548     220.890    -243.091
  N      132.774     220.706    -243.653
  C      130.408     220.067    -243.536
  C      129.244     220.303    -242.931
  O      123.834     217.139    -242.390
  O      125.966     216.047    -243.298
  H      126.013     223.164    -240.793
  H      123.682     217.250    -243.345
  H      130.537     219.323    -244.310
  H      128.352     219.747    -243.195
  H      128.103     222.273    -240.467
  H      127.202     222.341    -243.230
  H      126.023     220.291    -243.042
  H      125.438     221.013    -240.130
  H      133.531     221.290    -243.323
  H      125.411     218.605    -239.780
  H      132.958     220.030    -244.382
  H      124.284     218.971    -241.073
  P      123.562     220.818    -243.592
  C      122.323     222.863    -244.524
  O      123.392     221.961    -244.709
  O      122.105     220.792    -242.924
  O      123.980     219.470    -244.078
  H      121.482     220.310    -243.498
  H      122.443     223.697    -245.222
  H      122.323     223.258    -243.506
  H      121.372     222.366    -244.732
  H      126.081     214.254    -239.730
  H      127.223     215.297    -240.543
  H      126.293     214.137    -241.461

 3  4  5  6  7  8  9  10  11  12  13  21  23  27  28  29  30  32 0
 6-311+G(2d,p)
 ****
 34  35 0
 6-311+G(2d,p)
 ****
 1  2  14  15  16  17  18  19  20  22  24  25  26 0
 3-21G
 ****
 31  33  36  37  38  39  40  41  42  43  44  45  46 0
 3-21G
 ****


