%nproc=1
%NoSave
%Mem=1900MB
#P OB98/GEN NMR

erre ene a

0 1
  C       31.136     142.208     136.547
  O       31.771     142.714     135.394
  H       30.191     142.739     136.686
  H       31.767     142.380     137.423
  H       30.926     141.141     136.449
  P       33.007     141.906     134.774
  C       31.387     140.433     133.403
  O       32.456     140.464     134.339
  C       30.976     138.989     133.094
  O       32.074     138.320     132.420
  C       30.693     138.197     134.376
  O       29.752     137.149     134.162
  C       32.047     137.587     134.698
  O       31.958     136.425     135.522
  C       32.597     137.313     133.301
  N       36.907     134.817     134.389
  C       35.617     134.549     134.800
  N       35.453     133.474     135.606
  N       34.586     135.283     134.472
  C       34.907     136.366     133.725
  C       36.149     136.748     133.274
  C       37.282     135.910     133.615
  O       38.448     136.112     133.298
  N       36.086     137.912     132.550
  C       34.808     138.236     132.564
  N       34.048     137.315     133.244
  O       33.910     141.560     136.053
  O       33.793     142.632     133.725
  H       32.869     136.148     135.737
  H       34.829     141.385     135.780
  H       37.661     134.202     134.646
  H       34.380     139.112     132.088
  H       32.256     136.337     132.935
  H       32.636     138.327     135.250
  H       36.239     133.008     136.035
  H       30.346     138.828     135.191
  H       34.592     133.448     136.160
  H       30.126     138.981     132.401
  H       31.741     140.935     132.499
  H       30.538     141.004     133.779
  P       28.468     137.066     135.116
  C       27.057     137.896     133.036
  O       27.235     137.817     134.435
  O       28.852     138.004     136.351
  O       28.111     135.680     135.555
  H       28.916     137.482     137.172
  H       26.165     138.446     132.820
  H       26.975     136.909     132.631
  H       27.897     138.393     132.597

 6  7  8  9  10  11  12  13  14  15  26  29  33  34 0
 6-311+G(2d,p)
 ****
 36  38  39  40  41 0
 6-311+G(2d,p)
 ****
 1  2  3  4  5  16  17  18  19  20  21  22  23  24  25 0
 3-21G
 ****
 27  28  30  31  32  35  37  42  43  44  45  46  47 0
 3-21G
 ****
 48  49 0
 3-21G
 ****


