%nproc=1
%NoSave
%Mem=1900MB
#P OB98/GEN NMR

erre ene a

0 1
  C     -244.962    -819.505     235.541
  O     -243.869    -818.698     235.078
  P     -243.417    -817.433     235.976
  C     -241.023    -818.328     236.541
  O     -241.819    -817.306     235.925
  C     -239.564    -818.176     236.113
  O     -239.366    -818.652     234.765
  C     -239.071    -816.721     236.072
  O     -238.776    -816.243     237.389
  C     -237.829    -816.848     235.197
  O     -236.688    -817.299     235.970
  C     -238.252    -817.926     234.181
  N     -238.589    -817.372     232.880
  C     -237.544    -816.840     232.146
  O     -236.376    -816.770     232.576
  N     -237.868    -816.344     230.908
  C     -239.116    -816.265     230.367
  O     -239.352    -815.804     229.260
  C     -240.200    -816.772     231.224
  C     -239.901    -817.290     232.414
  O     -243.673    -817.966     237.465
  O     -244.180    -816.152     235.739
  H     -236.520    -816.601     236.638
  H     -243.869    -817.206     238.070
  H     -237.114    -815.971     230.336
  H     -241.207    -816.714     230.841
  H     -240.687    -817.649     233.075
  H     -237.462    -818.661     234.052
  H     -237.539    -815.892     234.734
  H     -239.811    -816.079     235.566
  H     -238.941    -818.778     236.772
  H     -241.382    -819.302     236.210
  H     -241.105    -818.247     237.620
  P     -238.371    -814.676     237.498
  C     -240.146    -813.727     239.166
  O     -238.844    -814.228     238.951
  O     -239.420    -814.007     236.482
  O     -236.930    -814.445     237.139
  H     -240.276    -814.468     236.493
  H     -240.863    -814.217     238.516
  H     -240.152    -812.658     239.014
  H     -240.415    -813.918     240.215
  H     -245.141    -820.297     234.844
  H     -245.841    -818.900     235.627
  H     -244.720    -819.919     236.497

 3  4  5  6  7  8  9  10  11  12  13  23  28  29  30  31  32 0
 6-311+G(2d,p)
 ****
 33  34 0
 6-311+G(2d,p)
 ****
 1  2  14  15  16  17  18  19  20  21  22  24  25  26 0
 3-21G
 ****
 27  35  36  37  38  39  40  41  42  43  44  45 0
 3-21G
 ****


