%nproc=1
%NoSave
%Mem=1900MB
#P OB98/GEN NMR

erre ene a

0 1
  C     -232.660      91.114    -724.789
  O     -233.043      90.776    -723.467
  P     -233.741      91.914    -722.576
  C     -236.146      91.058    -723.083
  O     -235.214      92.126    -723.183
  C     -237.129      91.319    -721.948
  O     -236.435      91.387    -720.678
  C     -237.885      92.634    -722.061
  O     -238.991      92.540    -722.950
  C     -238.362      92.822    -720.634
  O     -239.536      92.017    -720.396
  C     -237.177      92.290    -719.822
  N     -234.051      93.767    -716.124
  C     -234.637      92.530    -716.349
  N     -234.399      91.575    -715.425
  N     -235.380      92.261    -717.388
  C     -235.541      93.323    -718.224
  C     -235.010      94.585    -718.108
  C     -234.200      94.868    -716.948
  O     -233.699      95.956    -716.658
  N     -235.383      95.382    -719.154
  C     -236.137      94.606    -719.906
  N     -236.297      93.355    -719.364
  O     -232.968      93.247    -723.012
  O     -233.676      91.686    -721.101
  H     -239.881      92.270    -719.519
  H     -233.115      93.952    -722.354
  H     -233.498      93.927    -715.304
  H     -236.598      94.901    -720.842
  H     -237.500      91.719    -718.950
  H     -238.643      93.856    -720.411
  H     -233.889      91.738    -714.570
  H     -237.214      93.452    -722.335
  H     -234.867      90.684    -715.535
  H     -237.829      90.472    -721.903
  H     -235.607      90.127    -722.900
  H     -236.681      90.961    -724.036
  P     -239.740      93.913    -723.314
  C     -238.999      93.566    -725.784
  O     -239.042      94.433    -724.667
  O     -239.207      94.928    -722.199
  O     -241.227      93.820    -723.329
  H     -239.856      95.637    -722.043
  H     -238.743      94.154    -726.670
  H     -239.967      93.085    -725.947
  H     -238.226      92.806    -725.633
  H     -232.211      90.264    -725.259
  H     -231.956      91.919    -724.762
  H     -233.524      91.414    -725.345

 3  4  5  6  7  8  9  10  11  12  23  26  30  31 0
 6-311+G(2d,p)
 ****
 33  35  36  37  38 0
 6-311+G(2d,p)
 ****
 1  2  13  14  15  16  17  18  19  20  21  22  24  25 0
 3-21G
 ****
 27  28  29  32  34  39  40  41  42  43  44  45  46  47  48  49 0
 3-21G
 ****


