%nproc=1
%NoSave
%Mem=1900MB
#P OB98/GEN NMR

erre ene a

0 1
  C     -157.458      85.996    -165.555
  O     -158.502      86.938    -165.673
  H     -156.743      86.357    -164.809
  H     -156.939      85.895    -166.510
  H     -157.837      85.023    -165.233
  P     -159.825      86.535    -166.486
  C     -158.763      86.593    -168.838
  O     -159.319      85.785    -167.811
  C     -158.907      85.898    -170.193
  O     -158.411      86.803    -171.227
  C     -158.105      84.583    -170.297
  O     -158.831      83.671    -171.130
  C     -156.852      85.052    -171.008
  O     -156.163      83.988    -171.615
  C     -157.431      86.073    -171.986
  N     -156.394      86.937    -172.536
  C     -155.912      86.616    -173.801
  O     -156.305      85.653    -174.456
  N     -154.895      87.401    -174.272
  C     -154.253      88.380    -173.574
  O     -153.295      88.999    -174.015
  C     -154.769      88.641    -172.219
  C     -155.803      87.924    -171.772
  O     -160.804      87.635    -166.729
  O     -160.456      85.332    -165.640
  H     -156.604      83.736    -172.448
  H     -161.406      85.234    -165.847
  H     -154.545      87.188    -175.193
  H     -154.272      89.402    -171.631
  H     -156.198      88.076    -170.774
  H     -157.956      85.571    -172.812
  H     -156.172      85.531    -170.298
  H     -157.904      84.126    -169.326
  H     -159.971      85.729    -170.399
  H     -157.703      86.753    -168.611
  H     -159.273      87.562    -168.857
  P     -159.705      82.473    -170.512
  C     -158.048      80.512    -170.415
  O     -158.771      81.480    -169.660
  O     -160.579      81.778    -171.505
  O     -160.607      83.181    -169.392
  H     -161.526      82.864    -169.477
  H     -157.463      79.908    -169.753
  H     -157.403      81.010    -171.108
  H     -158.736      79.891    -170.951

 6  7  8  9  10  11  12  13  14  15  16  26  31  32  33  34  35 0
 6-311+G(2d,p)
 ****
 36  37 0
 6-311+G(2d,p)
 ****
 1  2  3  4  5  17  18  19  20  21  22  23  24  25 0
 3-21G
 ****
 27  28  29  30  38  39  40  41  42  43  44  45 0
 3-21G
 ****


