%nproc=1
%NoSave
%Mem=1900MB
#P OB98/GEN NMR

erre ene a

0 1
  C     -109.058      50.336      21.569
  O     -108.670      50.454      22.944
  P     -107.142      50.442      23.437
  C     -105.352      48.638      23.936
  O     -106.580      48.945      23.283
  C     -104.745      47.350      23.375
  O     -105.568      46.211      23.728
  C     -104.652      47.284      21.858
  O     -103.623      48.109      21.343
  C     -104.427      45.789      21.637
  O     -103.040      45.443      21.771
  C     -105.239      45.162      22.787
  N     -106.436      44.476      22.329
  C     -106.340      43.090      22.164
  O     -105.263      42.516      22.323
  N     -107.467      42.394      21.805
  C     -108.562      43.034      21.532
  N     -109.652      42.290      21.200
  C     -108.665      44.505      21.562
  C     -107.577      45.156      21.968
  O     -106.940      51.022      24.799
  O     -106.335      51.272      22.331
  H     -105.535      51.660      22.734
  H     -102.958      44.502      21.522
  H     -109.585      45.001      21.285
  H     -107.571      46.239      22.032
  H     -104.614      44.458      23.349
  H     -104.744      45.467      20.640
  H     -105.617      47.573      21.422
  H     -103.753      47.216      23.824
  H     -109.549      41.281      21.199
  H     -105.555      48.497      25.005
  H     -110.556      42.687      20.991
  H     -104.662      49.480      23.822
  P     -104.038      49.595      20.898
  C     -106.046      50.623      19.613
  O     -105.267      49.471      19.876
  O     -102.817      50.064      19.973
  O     -104.257      50.541      22.031
  H     -102.624      51.006      20.140
  H     -106.477      50.531      18.611
  H     -105.446      51.536      19.659
  H     -106.857      50.683      20.342
  H     -110.125      50.371      21.495
  H     -108.703      49.406      21.177
  H     -108.635      51.144      21.009

 3  4  5  6  7  8  9  10  11  12  13  24  27  28  29  30  32 0
 6-311+G(2d,p)
 ****
 34  35 0
 6-311+G(2d,p)
 ****
 1  2  14  15  16  17  18  19  20  21  22  23  25  26 0
 3-21G
 ****
 31  33  36  37  38  39  40  41  42  43  44  45  46 0
 3-21G
 ****


