%nproc=1
%NoSave
%Mem=1900MB
#P OB98/GEN NMR

erre ene a

0 1
  C     -159.538       6.841       2.040
  O     -160.163       5.927       1.166
  P     -161.552       6.276       0.450
  C     -162.332       7.983      -1.315
  O     -161.316       7.631      -0.383
  C     -162.407       9.507      -1.469
  O     -163.087      10.061      -0.298
  C     -161.017      10.168      -1.567
  O     -160.851      11.030      -2.694
  C     -160.867      10.833      -0.208
  O     -159.917      11.881      -0.184
  C     -162.316      11.205       0.119
  N     -162.509      11.520       1.532
  C     -162.004      12.735       1.985
  O     -161.424      13.555       1.278
  N     -162.130      12.973       3.325
  C     -162.592      12.092       4.255
  O     -162.585      12.334       5.455
  C     -163.075      10.808       3.722
  C     -163.035      10.590       2.406
  O     -162.744       6.307       1.346
  O     -161.643       5.181      -0.716
  H     -160.212      12.569      -0.810
  H     -160.911       5.205      -1.357
  H     -161.768      13.850       3.668
  H     -163.438      10.084       4.438
  H     -163.384       9.654       1.984
  H     -162.654      12.058      -0.473
  H     -160.518      10.071       0.500
  H     -160.232       9.415      -1.692
  H     -163.011       9.724      -2.354
  H     -163.291       7.613      -0.946
  H     -162.138       7.496      -2.277
  P     -159.445      11.477      -3.309
  C     -157.397      10.260      -4.354
  O     -158.582      10.159      -3.590
  O     -158.732      12.550      -2.555
  O     -159.823      11.981      -4.782
  H     -159.191      12.666      -5.065
  H     -157.227       9.307      -4.863
  H     -156.553      10.455      -3.686
  H     -157.466      11.055      -5.101
  H     -158.628       6.417       2.408
  H     -160.191       7.053       2.861
  H     -159.322       7.747       1.513

 3  4  5  6  7  8  9  10  11  12  13  23  28  29  30  31  32 0
 6-311+G(2d,p)
 ****
 33  34 0
 6-311+G(2d,p)
 ****
 1  2  14  15  16  17  18  19  20  21  22  24  25  26  27 0
 3-21G
 ****
 35  36  37  38  39  40  41  42  43  44  45 0
 3-21G
 ****


