%nproc=1
%NoSave
%Mem=1900MB
#P OB98/GEN NMR

erre ene a

0 1
  C      -60.096      84.013     584.744
  O      -60.909      82.859     584.816
  P      -61.305      82.055     583.485
  C      -63.169      80.885     584.830
  O      -62.852      81.655     583.675
  C      -64.650      80.503     584.836
  O      -65.476      81.674     584.976
  C      -65.119      79.811     583.561
  O      -64.702      78.461     583.542
  C      -66.623      80.014     583.657
  O      -67.229      79.019     584.502
  C      -66.727      81.411     584.298
  N      -67.043      82.451     583.325
  C      -68.368      82.900     583.318
  O      -69.202      82.396     584.079
  N      -68.731      83.870     582.414
  C      -67.852      84.331     581.580
  N      -68.276      85.280     580.699
  C      -66.451      83.859     581.534
  C      -66.120      82.932     582.424
  O      -60.390      80.934     583.122
  O      -61.370      83.209     582.372
  H      -68.184      79.228     584.530
  H      -60.464      83.511     582.114
  H      -65.758      84.269     580.813
  H      -65.114      82.528     582.463
  H      -67.506      81.424     585.077
  H      -67.113      79.940     582.675
  H      -64.733      80.349     582.686
  H      -64.833      79.854     585.704
  H      -69.251      85.552     580.744
  H      -62.952      81.490     585.717
  H      -67.684      85.678     579.986
  H      -62.538      79.991     584.857
  P      -64.417      77.733     582.143
  C      -63.899      75.492     583.290
  O      -64.702      76.167     582.342
  O      -63.112      78.067     581.502
  O      -65.640      78.205     581.220
  H      -65.296      78.450     580.340
  H      -64.393      74.561     583.569
  H      -63.753      76.103     584.187
  H      -62.925      75.263     582.840
  H      -59.945      84.405     585.728
  H      -60.577      84.751     584.137
  H      -59.151      83.757     584.313

 3  4  5  6  7  8  9  10  11  12  13  23  27  28  29  30  32 0
 6-311+G(2d,p)
 ****
 34  35 0
 6-311+G(2d,p)
 ****
 1  2  14  15  16  17  18  19  20  21  22  24  25  26 0
 3-21G
 ****
 31  33  36  37  38  39  40  41  42  43  44  45  46 0
 3-21G
 ****


