%nproc=1
%NoSave
%Mem=1900MB
#P OB98/GEN NMR

erre ene a

0 1
  C     -179.580     452.678     -15.207
  O     -178.326     452.033     -15.088
  P     -177.940     451.271     -13.732
  C     -178.311     448.810     -14.497
  O     -178.766     449.897     -13.718
  C     -178.769     447.474     -13.902
  O     -178.195     447.357     -12.578
  C     -180.278     447.337     -13.716
  O     -180.592     445.950     -13.566
  C     -180.493     448.054     -12.402
  O     -181.724     447.685     -11.782
  C     -179.214     447.687     -11.606
  N     -178.769     448.804     -10.754
  C     -179.298     448.870      -9.470
  O     -180.044     448.007      -9.010
  N     -179.010     450.006      -8.763
  C     -178.299     451.070      -9.233
  O     -178.309     452.181      -8.718
  C     -177.573     450.841     -10.493
  C     -177.858     449.746     -11.201
  O     -178.658     452.160     -12.611
  O     -176.479     451.136     -13.484
  H     -181.822     448.257     -10.986
  H     -178.024     452.791     -12.224
  H     -179.511     450.116      -7.889
  H     -176.879     451.599     -10.827
  H     -177.376     449.575     -12.157
  H     -179.380     446.816     -10.960
  H     -180.525     449.133     -12.583
  H     -180.872     447.776     -14.524
  H     -178.382     446.652     -14.514
  H     -177.221     448.849     -14.569
  H     -178.695     448.894     -15.523
  P     -182.012     445.440     -14.115
  C     -181.525     445.162     -16.619
  O     -182.127     445.965     -15.622
  O     -183.190     445.725     -13.240
  O     -181.780     443.865     -14.304
  H     -182.639     443.409     -14.345
  H     -182.072     445.294     -17.556
  H     -181.546     444.102     -16.343
  H     -180.491     445.479     -16.762
  H     -179.659     453.129     -16.174
  H     -179.666     453.433     -14.454
  H     -180.364     451.960     -15.083

 3  4  5  6  7  8  9  10  11  12  13  23  28  29  30  31  32 0
 6-311+G(2d,p)
 ****
 33  34 0
 6-311+G(2d,p)
 ****
 1  2  14  15  16  17  18  19  20  21  22  24  25  26  27 0
 3-21G
 ****
 35  36  37  38  39  40  41  42  43  44  45 0
 3-21G
 ****


