%nproc=1
%NoSave
%Mem=1900MB
#P OB98/GEN NMR

erre ene a

0 1
  C      248.603     439.638     305.170
  O      247.616     439.580     304.155
  P      246.385     438.572     304.373
  C      246.002     438.431     301.799
  O      246.221     437.730     303.016
  C      245.951     437.451     300.634
  O      247.273     436.937     300.362
  C      245.070     436.233     300.854
  O      243.689     436.556     300.734
  C      245.603     435.301     299.768
  O      245.051     435.659     298.496
  C      247.108     435.604     299.800
  N      248.768     430.766     300.133
  C      248.010     431.394     299.215
  N      247.591     432.679     299.198
  C      248.053     433.333     300.292
  C      248.814     432.813     301.318
  C      249.188     431.466     301.214
  N      249.966     430.817     302.156
  N      249.076     433.782     302.259
  C      248.491     434.870     301.814
  N      247.859     434.649     300.612
  O      245.105     439.542     304.367
  O      246.448     437.749     305.631
  H      244.078     435.634     298.588
  H      244.415     439.220     304.971
  H      247.686     430.793     298.354
  H      248.480     435.832     302.311
  H      247.562     435.604     298.804
  H      245.354     434.246     299.956
  H      245.266     435.796     301.856
  H      245.620     438.010     299.734
  H      246.809     439.143     301.638
  H      250.055     429.830     302.084
  H      250.163     431.314     303.022
  H      245.063     438.994     301.881
  P      242.783     436.455     302.051
  C      240.875     436.899     300.396
  O      241.318     436.117     301.481
  O      242.652     437.990     302.486
  O      243.302     435.521     303.100
  H      242.402     438.560     301.730
  H      239.882     436.547     300.065
  H      241.574     436.835     299.544
  H      240.775     437.957     300.700
  H      249.357     440.345     304.894
  H      249.047     438.672     305.291
  H      248.150     439.940     306.091

 3  4  5  6  7  8  9  10  11  12  22  25  29  30  31  32 0
 6-311+G(2d,p)
 ****
 33  36  37 0
 6-311+G(2d,p)
 ****
 1  2  13  14  15  16  17  18  19  20  21  23  24  26 0
 3-21G
 ****
 27  28  34  35  38  39  40  41  42  43  44  45  46  47  48 0
 3-21G
 ****


