%nproc=1
%NoSave
%Mem=1900MB
#P OB98/GEN NMR

erre ene a

0 1
  C      -61.114    -659.316     275.863
  O      -60.716    -657.955     275.698
  P      -59.702    -657.569     274.514
  C      -57.529    -657.765     275.896
  O      -58.278    -658.275     274.800
  C      -56.020    -657.985     275.734
  O      -55.286    -657.408     276.837
  C      -55.604    -659.459     275.631
  O      -54.494    -659.531     274.712
  C      -55.138    -659.761     277.049
  O      -54.320    -660.930     277.118
  C      -54.445    -658.442     277.395
  N      -54.263    -658.272     278.843
  C      -53.019    -657.774     279.264
  O      -52.114    -657.615     278.449
  N      -52.852    -657.522     280.599
  C      -53.769    -657.871     281.441
  N      -53.576    -657.573     282.763
  C      -55.022    -658.538     281.046
  C      -55.204    -658.686     279.736
  O      -59.618    -656.110     274.186
  O      -60.272    -658.407     273.276
  H      -53.515    -660.782     276.575
  H      -60.128    -657.893     272.457
  H      -55.724    -658.897     281.797
  H      -56.086    -659.173     279.336
  H      -53.462    -658.365     276.904
  H      -56.015    -659.926     277.697
  H      -56.406    -660.121     275.276
  H      -55.712    -657.457     274.821
  H      -52.697    -657.127     283.028
  H      -57.863    -658.259     276.819
  H      -54.267    -657.772     283.478
  H      -57.766    -656.701     276.024
  P      -54.772    -660.026     273.212
  C      -55.995    -662.229     273.866
  O      -56.071    -660.970     273.224
  O      -53.592    -661.095     273.003
  O      -54.697    -658.982     272.145
  H      -53.404    -661.180     272.041
  H      -57.010    -662.607     274.037
  H      -55.484    -662.170     274.826
  H      -55.458    -662.943     273.224
  H      -61.786    -659.393     276.692
  H      -60.250    -659.920     276.047
  H      -61.604    -659.655     274.974

 3  4  5  6  7  8  9  10  11  12  13  23  27  28  29  30  32 0
 6-311+G(2d,p)
 ****
 34  35 0
 6-311+G(2d,p)
 ****
 1  2  14  15  16  17  18  19  20  21  22  24  25  26 0
 3-21G
 ****
 31  33  36  37  38  39  40  41  42  43  44  45  46 0
 3-21G
 ****


