%nproc=1
%NoSave
%Mem=1900MB
#P OB98/GEN NMR

erre ene a

0 1
  C       28.439     165.736     -14.742
  O       27.936     164.789     -13.826
  H       27.922     166.686     -14.581
  H       28.246     165.399     -15.764
  H       29.512     165.894     -14.605
  P       28.793     163.471     -13.533
  C       27.946     162.508     -15.772
  O       29.073     162.745     -14.939
  C       28.112     161.241     -16.613
  O       26.954     161.043     -17.453
  C       29.311     161.325     -17.558
  O       30.560     160.981     -16.986
  C       28.918     160.333     -18.649
  O       29.293     158.995     -18.285
  C       27.393     160.470     -18.697
  N       26.339     160.729     -23.690
  C       26.876     159.682     -22.967
  N       27.230     158.587     -23.678
  N       27.064     159.718     -21.675
  C       26.752     160.910     -21.115
  C       26.227     162.025     -21.729
  C       25.972     161.954     -23.153
  O       25.504     162.858     -23.842
  N       26.037     163.051     -20.834
  C       26.517     162.583     -19.699
  N       26.938     161.278     -19.814
  O       27.737     162.481     -12.839
  O       29.996     163.669     -12.663
  H       28.844     158.767     -17.452
  H       28.204     161.850     -12.263
  H       26.191     160.635     -24.680
  H       26.558     163.134     -18.766
  H       26.906     159.491     -18.788
  H       29.418     160.555     -19.596
  H       27.212     158.557     -24.686
  H       29.374     162.323     -18.006
  H       27.861     157.915     -23.236
  H       28.182     160.373     -15.947
  H       27.847     163.379     -16.425
  H       27.034     162.451     -15.170
  P       31.843     161.901     -17.249
  C       32.800     160.244     -19.015
  O       32.372     161.556     -18.723
  O       32.948     161.253     -16.287
  O       31.645     163.352     -16.970
  H       32.991     161.746     -15.445
  H       33.118     160.191     -20.035
  H       31.991     159.562     -18.858
  H       33.616     159.984     -18.373

 6  7  8  9  10  11  12  13  14  15  26  29  33  34 0
 6-311+G(2d,p)
 ****
 36  38  39  40  41 0
 6-311+G(2d,p)
 ****
 1  2  3  4  5  16  17  18  19  20  21  22  23  24  25 0
 3-21G
 ****
 27  28  30  31  32  35  37  42  43  44  45  46  47 0
 3-21G
 ****
 48  49 0
 3-21G
 ****


