%nproc=1
%NoSave
%Mem=1900MB
#P OB98/GEN NMR

erre ene a

0 1
  C      -84.184    -460.797     186.333
  O      -83.518    -461.742     187.150
  H      -85.249    -461.040     186.314
  H      -83.797    -460.833     185.309
  H      -84.065    -459.789     186.742
  P      -81.917    -461.672     187.251
  C      -82.086    -459.733     188.968
  O      -81.613    -460.153     187.695
  C      -80.974    -459.822     190.002
  O      -79.825    -459.037     189.605
  C      -81.337    -459.294     191.389
  O      -82.195    -460.157     192.119
  C      -79.952    -459.190     192.008
  O      -79.491    -460.497     192.381
  C      -79.132    -458.626     190.819
  N      -78.996    -457.168     190.861
  C      -78.142    -456.646     191.845
  O      -77.546    -457.398     192.615
  N      -78.008    -455.278     191.943
  C      -78.680    -454.503     191.154
  N      -78.551    -453.159     191.330
  C      -79.584    -455.009     190.099
  C      -79.697    -456.329     190.012
  O      -81.158    -462.149     186.055
  O      -81.565    -462.475     188.590
  H      -78.661    -460.377     192.882
  H      -80.581    -462.470     188.693
  H      -80.128    -454.315     189.470
  H      -80.354    -456.779     189.273
  H      -78.130    -459.074     190.788
  H      -79.929    -458.566     192.914
  H      -81.769    -458.285     191.321
  H      -80.643    -460.873     190.051
  H      -77.958    -452.845     192.096
  H      -82.936    -460.370     189.243
  H      -79.232    -452.504     190.962
  H      -82.431    -458.690     188.920
  P      -83.182    -459.506     193.205
  C      -85.170    -459.520     191.516
  O      -84.344    -458.759     192.383
  O      -82.307    -458.305     193.806
  O      -83.689    -460.435     194.268
  H      -81.840    -458.578     194.613
  H      -85.886    -458.876     191.050
  H      -85.681    -460.273     192.080
  H      -84.566    -459.985     190.765

 6  7  8  9  10  11  12  13  14  15  16  26  30  31  32  33  35 0
 6-311+G(2d,p)
 ****
 37  38 0
 6-311+G(2d,p)
 ****
 1  2  3  4  5  17  18  19  20  21  22  23  24  25 0
 3-21G
 ****
 27  28  29  34  36  39  40  41  42  43  44  45  46 0
 3-21G
 ****


