%nproc=1
%NoSave
%Mem=1900MB
#P OB98/GEN NMR

erre ene a

0 1
  C     -297.031     424.965     193.072
  O     -296.975     426.119     193.896
  P     -298.284     427.010     194.162
  C     -296.792     429.105     194.388
  O     -297.878     428.491     193.707
  C     -296.331     430.344     193.623
  O     -295.879     429.957     192.310
  C     -297.419     431.383     193.393
  O     -297.670     432.131     194.577
  C     -296.821     432.176     192.236
  O     -295.839     433.100     192.716
  C     -296.139     431.063     191.413
  N     -296.932     430.633     190.267
  C     -297.284     431.622     189.345
  O     -296.924     432.790     189.500
  N     -298.009     431.260     188.236
  C     -298.375     430.026     188.075
  N     -299.034     429.713     186.923
  C     -298.073     428.961     189.051
  C     -297.354     429.331     190.107
  O     -298.844     426.908     195.543
  O     -299.310     426.567     193.017
  H     -296.261     433.625     193.420
  H     -299.875     425.798     193.270
  H     -298.412     427.950     188.879
  H     -297.070     428.604     190.861
  H     -295.157     431.402     191.057
  H     -297.566     432.745     191.664
  H     -298.347     430.902     193.070
  H     -295.485     430.787     194.161
  H     -299.062     430.428     186.210
  H     -295.964     428.391     194.444
  H     -299.092     428.758     186.594
  H     -297.103     429.366     195.405
  P     -299.170     432.626     194.833
  C     -298.032     434.314     196.441
  O     -299.046     434.093     195.477
  O     -299.660     431.700     196.047
  O     -300.069     432.521     193.645
  H     -300.226     430.978     195.712
  H     -297.930     435.391     196.594
  H     -297.073     433.912     196.096
  H     -298.309     433.850     197.392
  H     -296.062     424.515     193.022
  H     -297.346     425.244     192.088
  H     -297.728     424.266     193.484

 3  4  5  6  7  8  9  10  11  12  13  23  27  28  29  30  32 0
 6-311+G(2d,p)
 ****
 34  35 0
 6-311+G(2d,p)
 ****
 1  2  14  15  16  17  18  19  20  21  22  24  25  26 0
 3-21G
 ****
 31  33  36  37  38  39  40  41  42  43  44  45  46 0
 3-21G
 ****


