%nproc=1
%NoSave
%Mem=1900MB
#P OB98/GEN NMR

erre ene a

0 1
  C     -278.695     169.819    -202.501
  O     -278.495     168.587    -201.822
  P     -277.379     168.441    -200.678
  C     -278.908     167.183    -199.039
  O     -278.199     168.389    -199.303
  C     -280.019     167.444    -198.019
  O     -280.952     168.393    -198.589
  C     -280.867     166.227    -197.636
  O     -280.312     165.414    -196.618
  C     -282.119     166.917    -197.107
  O     -281.884     167.386    -195.765
  C     -282.269     168.100    -198.064
  N     -287.174     167.500    -199.401
  C     -286.587     167.818    -198.222
  N     -285.271     167.939    -197.943
  C     -284.532     167.741    -199.048
  C     -284.988     167.417    -200.316
  C     -286.379     167.296    -200.478
  N     -286.973     167.001    -201.684
  N     -283.923     167.272    -201.191
  C     -282.860     167.520    -200.463
  N     -283.174     167.813    -199.165
  O     -276.287     169.454    -200.746
  O     -276.847     166.940    -200.835
  H     -282.661     167.914    -195.507
  H     -275.995     166.841    -200.368
  H     -287.266     167.989    -197.388
  H     -281.844     167.495    -200.828
  H     -282.628     169.008    -197.562
  H     -282.985     166.248    -197.062
  H     -281.131     165.633    -198.521
  H     -279.569     167.901    -197.129
  H     -278.204     166.453    -198.628
  H     -287.973     167.063    -201.731
  H     -286.396     167.011    -202.513
  H     -279.316     166.784    -199.973
  P     -280.019     163.877    -196.985
  C     -277.546     164.122    -196.148
  O     -278.433     163.779    -197.198
  O     -280.846     163.334    -198.096
  O     -280.249     163.132    -195.588
  H     -279.604     163.341    -194.894
  H     -276.535     163.834    -196.438
  H     -277.812     163.596    -195.226
  H     -277.576     165.203    -195.979
  H     -279.479     169.707    -203.220
  H     -277.792     170.102    -203.000
  H     -278.965     170.576    -201.794

 3  4  5  6  7  8  9  10  11  12  22  25  29  30  31  32 0
 6-311+G(2d,p)
 ****
 33  36  37 0
 6-311+G(2d,p)
 ****
 1  2  13  14  15  16  17  18  19  20  21  23  24  26 0
 3-21G
 ****
 27  28  34  35  38  39  40  41  42  43  44  45  46  47  48 0
 3-21G
 ****


