%nproc=1
%NoSave
%Mem=1900MB
#P OB98/GEN NMR

erre ene a

0 1
  C     -898.560     127.786    1298.814
  O     -898.850     128.352    1297.523
  P     -898.820     129.938    1297.368
  C     -897.100     130.069    1295.415
  O     -897.390     130.349    1296.778
  C     -895.940     129.061    1295.309
  O     -896.310     127.772    1295.857
  C     -895.490     128.802    1293.879
  O     -894.600     129.794    1293.425
  C     -894.770     127.471    1294.044
  O     -893.440     127.709    1294.568
  C     -895.630     126.753    1295.082
  N     -896.520     122.007    1293.559
  C     -895.400     122.563    1294.145
  N     -894.360     121.730    1294.367
  N     -895.300     123.824    1294.485
  C     -896.420     124.534    1294.224
  C     -897.590     124.102    1293.644
  C     -897.680     122.713    1293.261
  O     -898.650     122.174    1292.722
  N     -898.500     125.120    1293.540
  C     -897.880     126.159    1294.069
  N     -896.620     125.866    1294.482
  O     -898.740     130.443    1298.883
  O     -900.000     130.511    1296.650
  H     -892.940     128.132    1293.842
  H     -899.140     131.328    1298.959
  H     -896.530     121.042    1293.311
  H     -898.330     127.152    1294.165
  H     -895.040     126.156    1295.781
  H     -894.650     126.954    1293.087
  H     -894.380     120.739    1294.174
  H     -896.370     128.682    1293.212
  H     -893.540     122.097    1294.821
  H     -895.100     129.456    1295.886
  H     -896.840     130.993    1294.894
  H     -898.010     129.698    1294.931
  P     -895.000     130.636    1292.116
  C     -894.820     133.069    1293.027
  O     -895.660     131.994    1292.659
  O     -896.250     129.812    1291.538
  O     -893.920     130.789    1291.109
  H     -896.280     129.885    1290.565
  H     -895.420     133.945    1293.215
  H     -894.110     133.293    1292.221
  H     -894.260     132.814    1293.948
  H     -898.619     126.719    1298.757
  H     -899.271     128.145    1299.529
  H     -897.574     128.073    1299.116

 3  4  5  6  7  8  9  10  11  12  23  26  30  31 0
 6-311+G(2d,p)
 ****
 33  35  36  37  38 0
 6-311+G(2d,p)
 ****
 1  2  13  14  15  16  17  18  19  20  21  22  24  25 0
 3-21G
 ****
 27  28  29  32  34  39  40  41  42  43  44  45  46  47  48  49 0
 3-21G
 ****


