%nproc=1
%NoSave
%Mem=1900MB
#P OB98/GEN NMR

erre ene a

0 1
  C      -36.976      -8.774    -336.442
  O      -36.891     -10.115    -335.947
  P      -38.074     -10.625    -334.991
  C      -36.393     -11.711    -333.320
  O      -37.540     -11.879    -334.148
  C      -35.424     -12.881    -333.514
  O      -34.648     -12.714    -334.716
  C      -34.407     -13.009    -332.392
  O      -34.990     -13.609    -331.252
  C      -33.319     -13.852    -333.047
  O      -33.550     -15.259    -332.852
  C      -33.436     -13.475    -334.543
  N      -32.279     -12.747    -335.032
  C      -31.032     -13.308    -334.733
  O      -30.960     -14.347    -334.072
  N      -29.902     -12.663    -335.170
  C      -30.003     -11.550    -335.822
  N      -28.850     -10.954    -336.224
  C      -31.303     -10.909    -336.133
  C      -32.388     -11.555    -335.711
  O      -39.117     -11.282    -336.012
  O      -38.705      -9.539    -334.179
  H      -33.655     -15.376    -331.886
  H      -40.025     -11.164    -335.686
  H      -31.338      -9.972    -336.672
  H      -33.381     -11.155    -335.893
  H      -33.548     -14.382    -335.154
  H      -32.335     -13.634    -332.623
  H      -34.004     -12.019    -332.138
  H      -36.010     -13.809    -333.599
  H      -27.979     -11.420    -335.989
  H      -36.694     -11.645    -332.271
  H      -28.815     -10.078    -336.731
  H      -35.915     -10.757    -333.568
  P      -34.666     -12.980    -329.822
  C      -33.082     -14.772    -328.886
  O      -34.391     -14.236    -328.860
  O      -36.117     -12.495    -329.330
  O      -33.665     -11.873    -329.773
  H      -36.039     -11.997    -328.497
  H      -32.975     -15.469    -328.051
  H      -32.338     -13.981    -328.782
  H      -32.925     -15.317    -329.824
  H      -36.128      -8.568    -337.062
  H      -36.991      -8.090    -335.619
  H      -37.873      -8.662    -337.015

 3  4  5  6  7  8  9  10  11  12  13  21  23  27  28  29  30  32 0
 6-311+G(2d,p)
 ****
 34  35 0
 6-311+G(2d,p)
 ****
 1  2  14  15  16  17  18  19  20  22  24  25  26 0
 3-21G
 ****
 31  33  36  37  38  39  40  41  42  43  44  45  46 0
 3-21G
 ****


