%nproc=1
%NoSave
%Mem=1900MB
#P OB98/GEN NMR

erre ene a

0 1
  C     -890.703    -684.636    -282.820
  O     -891.493    -685.209    -283.848
  H     -889.793    -684.232    -283.258
  H     -890.433    -685.400    -282.087
  H     -891.243    -683.822    -282.322
  P     -892.963    -685.733    -283.492
  C     -893.953    -687.505    -281.914
  O     -892.793    -687.034    -282.580
  C     -893.943    -689.040    -281.846
  O     -893.093    -689.461    -280.754
  C     -895.303    -689.658    -281.568
  O     -896.123    -689.645    -282.711
  C     -894.893    -691.037    -281.089
  O     -894.613    -691.903    -282.191
  C     -893.603    -690.741    -280.286
  N     -893.833    -690.722    -278.849
  C     -893.713    -691.942    -278.189
  O     -893.423    -692.993    -278.758
  N     -894.003    -691.915    -276.849
  C     -894.523    -690.866    -276.161
  O     -894.993    -690.968    -275.035
  C     -894.563    -689.594    -276.893
  C     -894.223    -689.560    -278.181
  O     -893.893    -685.886    -284.661
  O     -893.513    -684.632    -282.454
  H     -894.123    -684.032    -282.915
  H     -895.433    -691.927    -282.730
  H     -893.953    -692.820    -276.372
  H     -894.883    -688.709    -276.356
  H     -894.283    -688.648    -278.739
  H     -892.833    -691.484    -280.522
  H     -895.673    -691.505    -280.482
  H     -895.793    -689.117    -280.744
  H     -893.513    -689.425    -282.773
  H     -894.843    -687.183    -282.482
  H     -893.993    -687.078    -280.910
  P     -897.723    -689.731    -282.570
  C     -899.483    -691.397    -281.718
  O     -898.093    -691.155    -281.929
  O     -898.493    -689.375    -283.788
  O     -898.043    -688.711    -281.374
  H     -898.783    -688.111    -281.662
  H     -899.615    -692.369    -281.290
  H     -900.000    -691.346    -282.653
  H     -899.877    -690.658    -281.052

 6  7  8  9  10  11  12  13  14  15  16  27  31  32  33  34  35 0
 6-311+G(2d,p)
 ****
 36  37 0
 6-311+G(2d,p)
 ****
 1  2  3  4  5  17  18  19  20  21  22  23  24  25 0
 3-21G
 ****
 26  28  29  30  38  39  40  41  42  43  44  45 0
 3-21G
 ****


