%nproc=1
%NoSave
%Mem=1900MB
#P OB98/GEN NMR

erre ene a

0 1
  C      462.227     409.461      24.936
  O      462.459     409.087      23.590
  H      461.563     408.728      25.392
  H      461.747     410.441      24.979
  H      463.167     409.479      25.494
  P      463.411     410.021      22.698
  C      463.138     412.388      21.698
  O      462.479     411.215      22.168
  C      462.117     413.440      21.296
  O      461.523     414.031      22.471
  C      462.696     414.595      20.484
  O      462.832     414.220      19.123
  C      461.643     415.661      20.716
  O      460.485     415.376      19.900
  C      461.302     415.445      22.203
  N      461.456     419.539      25.197
  C      460.458     419.104      24.342
  N      459.363     419.884      24.241
  N      460.535     418.002      23.634
  C      461.717     417.350      23.787
  C      462.782     417.701      24.593
  C      462.659     418.878      25.406
  O      463.516     419.301      26.192
  N      463.835     416.831      24.426
  C      463.392     415.941      23.555
  N      462.112     416.219      23.127
  O      464.179     409.330      21.610
  O      464.372     410.730      23.762
  H      460.799     415.299      18.981
  H      465.198     410.227      23.884
  H      461.339     420.406      25.700
  H      463.947     415.074      23.213
  H      460.251     415.669      22.425
  H      461.978     416.666      20.461
  H      459.381     420.856      24.523
  H      463.650     414.953      20.904
  H      458.647     419.607      23.580
  H      461.311     412.939      20.748
  H      463.745     412.094      20.833
  H      463.804     412.786      22.474
  P      463.827     415.013      18.134
  C      463.967     417.538      17.600
  O      463.121     416.434      17.894
  O      464.190     414.287      16.890
  O      465.080     415.396      19.048
  H      465.783     414.702      19.074
  H      463.372     418.417      17.464
  H      464.517     417.337      16.704
  H      464.649     417.691      18.411

 6  7  8  9  10  11  12  13  14  15  26  29  33  34 0
 6-311+G(2d,p)
 ****
 36  38  39  40  41 0
 6-311+G(2d,p)
 ****
 1  2  3  4  5  16  17  18  19  20  21  22  23  24  25 0
 3-21G
 ****
 27  28  30  31  32  35  37  42  43  44  45  46  47 0
 3-21G
 ****
 48  49 0
 3-21G
 ****


