%nproc=1
%NoSave
%Mem=1900MB
#P OB98/GEN NMR

erre ene a

0 1
  C      -15.457     758.586     441.559
  O      -16.300     759.647     441.179
  P      -17.890     759.560     441.352
  C      -18.150     760.226     443.829
  O      -18.166     759.152     442.889
  C      -19.584     760.708     444.106
  O      -20.161     761.182     442.844
  C      -20.498     759.597     444.659
  O      -21.182     759.942     445.867
  C      -21.388     759.269     443.474
  O      -22.602     758.633     443.821
  C      -21.496     760.629     442.778
  N      -21.989     760.526     441.411
  C      -23.211     759.884     441.221
  O      -23.901     759.415     442.128
  N      -23.616     759.738     439.923
  C      -22.885     760.051     438.816
  O      -23.269     759.794     437.683
  C      -21.587     760.691     439.074
  C      -21.214     760.916     440.338
  O      -18.593     758.695     440.365
  O      -18.346     761.092     441.327
  H      -23.087     758.431     443.000
  H      -17.955     761.646     442.026
  H      -24.498     759.272     439.771
  H      -20.978     760.942     438.217
  H      -20.260     761.389     440.562
  H      -22.151     761.301     443.327
  H      -20.836     758.573     442.824
  H      -19.909     758.706     444.932
  H      -19.519     761.555     444.798
  H      -17.569     761.050     443.423
  H      -17.667     759.902     444.761
  P      -21.701     758.896     446.964
  C      -19.746     759.222     448.644
  O      -20.437     758.352     447.774
  O      -22.619     757.834     446.440
  O      -22.453     759.814     448.031
  H      -23.157     759.305     448.461
  H      -18.701     758.911     448.706
  H      -20.194     759.163     449.642
  H      -19.779     760.258     448.285
  H      -14.439     758.850     441.360
  H      -15.714     757.709     441.002
  H      -15.577     758.392     442.604

 3  4  5  6  7  8  9  10  11  12  13  23  28  29  30  31  32 0
 6-311+G(2d,p)
 ****
 33  34 0
 6-311+G(2d,p)
 ****
 1  2  14  15  16  17  18  19  20  21  22  24  25  26  27 0
 3-21G
 ****
 35  36  37  38  39  40  41  42  43  44  45 0
 3-21G
 ****


