%nproc=1
%NoSave
%Mem=1900MB
#P OB98/GEN NMR

erre ene a

0 1
  C       74.823     145.746     259.669
  O       75.969     145.285     260.367
  P       77.408     145.622     259.730
  C       77.424     147.662     261.337
  O       77.679     147.175     260.026
  C       78.206     148.949     261.621
  O       77.850     149.436     262.937
  C       79.725     148.772     261.576
  O       80.284     149.959     261.004
  C       80.116     148.696     263.039
  O       81.475     149.084     263.244
  C       79.074     149.626     263.675
  N       78.888     149.355     265.097
  C       80.014     149.477     265.920
  O       81.112     149.724     265.422
  N       79.877     149.266     267.267
  C       78.739     148.862     267.741
  N       78.652     148.669     269.085
  C       77.559     148.601     266.891
  C       77.697     148.885     265.599
  O       77.122     145.590     258.159
  O       78.497     144.682     260.131
  H       81.667     149.036     264.203
  H       77.906     145.280     257.667
  H       76.645     148.230     267.335
  H       76.875     148.750     264.907
  H       79.370     150.679     263.558
  H       79.993     147.671     263.407
  H       80.037     147.901     260.991
  H       77.891     149.706     260.894
  H       79.480     148.838     269.644
  H       77.733     146.903     262.069
  H       77.808     148.353     269.543
  H       76.345     147.830     261.461
  P       81.752     149.854     260.367
  C       80.517     149.075     258.256
  O       81.600     148.836     259.137
  O       82.506     148.940     261.447
  O       82.501     151.119     260.111
  H       83.444     148.853     261.204
  H       80.610     148.402     257.398
  H       80.534     150.106     257.892
  H       79.570     148.866     258.762
  H       73.941     145.454     260.200
  H       74.807     145.318     258.688
  H       74.857     146.813     259.593

 3  4  5  6  7  8  9  10  11  12  13  21  23  27  28  29  30  32 0
 6-311+G(2d,p)
 ****
 34  35 0
 6-311+G(2d,p)
 ****
 1  2  14  15  16  17  18  19  20  22  24  25  26 0
 3-21G
 ****
 31  33  36  37  38  39  40  41  42  43  44  45  46 0
 3-21G
 ****


