%nproc=1
%NoSave
%Mem=1900MB
#P OB98/GEN NMR

erre ene a

0 1
  C      111.582    -116.437     407.711
  O      111.166    -117.773     407.505
  H      110.782    -115.870     408.192
  H      112.459    -116.438     408.367
  H      111.853    -115.967     406.759
  P      109.998    -118.009     406.430
  C      111.679    -118.749     404.588
  O      110.569    -119.104     405.400
  C      112.313    -120.000     403.974
  O      113.138    -120.645     404.980
  C      111.286    -121.027     403.484
  O      111.764    -121.612     402.268
  C      111.272    -122.069     404.589
  O      110.848    -123.345     404.120
  C      112.720    -122.025     405.066
  N      112.803    -126.212     407.989
  C      112.760    -126.047     406.649
  N      112.747    -124.893     405.947
  C      112.837    -123.833     406.776
  C      112.889    -123.846     408.162
  C      112.861    -125.109     408.777
  N      112.868    -125.284     410.142
  N      112.937    -122.553     408.654
  C      112.919    -121.781     407.585
  N      112.851    -122.510     406.429
  O      110.034    -116.646     405.585
  O      108.646    -118.286     406.992
  H      111.479    -123.644     403.434
  H      109.561    -115.945     406.080
  H      112.721    -126.961     406.064
  H      112.940    -120.699     407.595
  H      113.390    -122.631     404.439
  H      110.588    -121.751     405.386
  H      110.299    -120.593     403.312
  H      112.988    -119.690     403.163
  H      112.420    -118.228     405.205
  H      112.789    -126.226     410.499
  H      112.848    -124.476     410.747
  H      111.343    -118.076     403.790
  P      110.844    -121.430     400.966
  C      111.969    -119.854     399.237
  O      111.796    -121.190     399.694
  O      110.153    -120.001     401.198
  O      109.822    -122.508     400.797
  H      109.190    -120.074     401.060
  H      112.623    -119.849     398.390
  H      112.394    -119.261     400.020
  H      111.020    -119.447     398.957

 6  7  8  9  10  11  12  13  14  15  25  28  32  33  34  35 0
 6-311+G(2d,p)
 ****
 36  39  40 0
 6-311+G(2d,p)
 ****
 1  2  3  4  5  16  17  18  19  20  21  22  23  24 0
 3-21G
 ****
 26  27  29  30  31  37  38  41  42  43  44  45  46  47 0
 3-21G
 ****
 48 0
 3-21G
 ****


