%nproc=1
%NoSave
%Mem=1900MB
#P OB98/GEN NMR

erre ene a

0 1
  C      146.600      69.445     -38.270
  O      145.264      69.639     -38.696
  P      144.765      69.040     -40.094
  C      145.370      69.328     -42.578
  O      145.420      69.905     -41.276
  C      145.962      70.288     -43.611
  O      145.230      71.538     -43.629
  C      147.404      70.680     -43.341
  O      148.307      69.624     -43.620
  C      147.550      71.908     -44.236
  O      147.787      71.519     -45.598
  C      146.154      72.553     -44.099
  N      146.161      73.714     -43.216
  C      145.005      74.502     -43.227
  O      144.082      74.249     -44.008
  N      144.923      75.561     -42.354
  C      145.953      75.879     -41.630
  N      145.795      76.900     -40.741
  C      147.246      75.170     -41.712
  C      147.271      74.093     -42.499
  O      143.290      68.839     -40.211
  O      145.539      67.640     -40.214
  H      144.892      66.939     -40.434
  H      147.010      70.988     -45.872
  H      148.094      75.520     -41.139
  H      148.174      73.499     -42.603
  H      145.779      72.862     -45.085
  H      148.380      72.552     -43.929
  H      147.514      70.984     -42.290
  H      145.868      69.820     -44.601
  H      144.887      77.353     -40.703
  H      144.324      69.118     -42.828
  H      146.397      77.013     -39.929
  H      145.921      68.382     -42.575
  P      149.588      69.493     -42.667
  C      151.618      71.005     -42.123
  O      150.586      70.690     -43.037
  O      150.334      68.187     -43.234
  O      149.273      69.349     -41.213
  H      150.731      67.691     -42.495
  H      152.390      71.573     -42.649
  H      152.070      70.102     -41.698
  H      151.216      71.626     -41.315
  H      146.743      69.915     -37.319
  H      147.269      69.877     -38.985
  H      146.798      68.397     -38.183

 3  4  5  6  7  8  9  10  11  12  13  24  27  28  29  30  32 0
 6-311+G(2d,p)
 ****
 34  35 0
 6-311+G(2d,p)
 ****
 1  2  14  15  16  17  18  19  20  21  22  23  25  26 0
 3-21G
 ****
 31  33  36  37  38  39  40  41  42  43  44  45  46 0
 3-21G
 ****


