%nproc=1
%NoSave
%Mem=1900MB
#P OB98/GEN NMR

erre ene a

0 1
  C     -418.800     790.891     467.645
  O     -418.778     791.442     468.945
  H     -419.073     791.677     466.938
  H     -419.544     790.093     467.588
  H     -417.807     790.503     467.376
  P     -418.439     790.503     470.204
  C     -416.923     790.715     472.265
  O     -417.510     791.395     471.172
  C     -415.914     791.601     472.991
  O     -414.744     791.801     472.136
  C     -416.453     792.988     473.357
  O     -416.134     793.306     474.717
  C     -415.712     793.936     472.429
  O     -415.624     795.263     472.925
  C     -414.378     793.189     472.283
  N     -413.589     793.674     471.147
  C     -412.643     794.665     471.425
  O     -412.508     795.085     472.582
  N     -411.929     795.202     470.398
  C     -412.167     794.827     469.177
  N     -411.442     795.424     468.192
  C     -413.173     793.796     468.834
  C     -413.841     793.265     469.850
  O     -417.871     789.168     469.847
  O     -419.816     790.399     471.015
  H     -415.184     795.818     472.251
  H     -419.800     789.588     471.578
  H     -413.336     793.519     467.798
  H     -414.601     792.516     469.703
  H     -413.763     793.287     473.190
  H     -416.227     793.963     471.455
  H     -417.538     793.079     473.227
  H     -415.549     791.064     473.885
  H     -410.763     796.113     468.472
  H     -416.432     789.799     471.888
  H     -411.550     795.222     467.208
  H     -417.715     790.425     472.968
  P     -417.351     793.248     475.774
  C     -417.480     792.209     478.158
  O     -416.723     792.990     477.231
  O     -418.095     791.878     475.417
  O     -418.273     794.419     475.676
  H     -418.957     792.074     475.003
  H     -416.939     792.123     479.077
  H     -417.647     791.234     477.750
  H     -418.421     792.685     478.341

 6  7  8  9  10  11  12  13  14  15  16  26  30  31  32  33  35 0
 6-311+G(2d,p)
 ****
 37  38 0
 6-311+G(2d,p)
 ****
 1  2  3  4  5  17  18  19  20  21  22  23  24  25 0
 3-21G
 ****
 27  28  29  34  36  39  40  41  42  43  44  45  46 0
 3-21G
 ****


