%nproc=1
%NoSave
%Mem=1900MB
#P OB98/GEN NMR

erre ene a

0 1
  C      784.795     -55.045     222.742
  O      784.678     -56.121     221.807
  P      786.043     -56.722     221.213
  C      786.166     -55.187     219.129
  O      786.765     -55.568     220.357
  C      786.962     -54.063     218.441
  O      786.482     -53.843     217.085
  C      786.861     -52.718     219.168
  O      788.112     -52.033     218.990
  C      785.790     -51.975     218.391
  O      785.859     -50.571     218.606
  C      786.115     -52.451     216.970
  N      783.232     -49.009     214.536
  C      784.282     -48.881     215.379
  N      784.984     -49.846     216.001
  C      784.528     -51.060     215.650
  C      783.460     -51.352     214.818
  C      782.795     -50.259     214.250
  N      781.712     -50.390     213.418
  N      783.268     -52.720     214.735
  C      784.199     -53.238     215.517
  N      784.994     -52.278     216.067
  O      785.537     -57.751     220.097
  O      786.902     -57.396     222.224
  H      785.395     -50.128     217.867
  H      785.673     -58.663     220.403
  H      784.596     -47.847     215.580
  H      784.322     -54.295     215.717
  H      786.970     -51.901     216.538
  H      784.801     -52.326     218.699
  H      786.632     -52.788     220.238
  H      788.008     -54.368     218.374
  H      785.143     -54.841     219.295
  H      781.265     -49.553     213.064
  H      781.339     -51.313     213.219
  H      786.089     -56.066     218.472
  P      789.306     -52.455     219.981
  C      789.363     -50.413     221.587
  O      788.979     -51.762     221.387
  O      790.558     -51.620     219.433
  O      789.579     -53.921     220.026
  H      791.385     -52.075     219.667
  H      788.564     -49.898     222.133
  H      789.547     -49.893     220.648
  H      790.277     -50.385     222.189
  H      783.819     -54.739     223.058
  H      785.294     -54.221     222.276
  H      785.359     -55.370     223.591

 3  4  5  6  7  8  9  10  11  12  22  25  29  30  31  32 0
 6-311+G(2d,p)
 ****
 33  36  37 0
 6-311+G(2d,p)
 ****
 1  2  13  14  15  16  17  18  19  20  21  23  24  26 0
 3-21G
 ****
 27  28  34  35  38  39  40  41  42  43  44  45  46  47  48 0
 3-21G
 ****


