%nproc=1
%NoSave
%Mem=1900MB
#P OB98/GEN NMR

erre ene a

0 1
  C      -10.423     -13.689     -14.739
  O       -9.067     -13.863     -14.377
  P       -8.069     -14.687     -15.316
  C       -6.095     -13.057     -15.381
  O       -6.570     -14.302     -14.885
  C       -4.774     -12.665     -14.721
  O       -4.964     -12.598     -13.282
  C       -3.613     -13.636     -14.984
  O       -2.421     -12.847     -15.039
  C       -3.601     -14.489     -13.727
  O       -2.354     -15.140     -13.512
  C       -3.957     -13.439     -12.681
  N       -5.116     -12.564      -7.781
  C       -4.564     -11.777      -8.728
  N       -4.263     -12.092     -10.003
  C       -4.593     -13.366     -10.270
  C       -5.134     -14.296      -9.399
  C       -5.418     -13.846      -8.097
  N       -6.013     -14.625      -7.130
  N       -5.277     -15.519     -10.029
  C       -4.832     -15.325     -11.252
  N       -4.469     -14.023     -11.461
  O       -8.340     -14.584     -16.780
  O       -8.215     -16.196     -14.807
  H       -2.213     -15.782     -14.233
  H       -8.730     -16.716     -15.455
  H       -4.339     -10.759      -8.423
  H       -4.750     -16.082     -12.019
  H       -3.100     -12.808     -12.420
  H       -4.377     -15.260     -13.798
  H       -3.728     -14.230     -15.894
  H       -4.510     -11.655     -15.058
  H       -6.848     -12.295     -15.159
  H       -6.291     -14.164      -6.278
  H       -6.484     -15.482      -7.411
  H       -5.971     -13.113     -16.468
  P       -1.494     -12.891     -16.346
  C       -1.429     -10.347     -16.608
  O       -0.672     -11.518     -16.368
  O       -2.197     -13.238     -17.616
  O       -0.375     -13.978     -15.973
  H        0.067     -14.282     -16.788
  H       -1.613     -10.246     -17.681
  H       -0.862      -9.479     -16.260
  H       -2.386     -10.380     -16.079
  H      -10.922     -13.114     -13.987
  H      -10.894     -14.646     -14.828
  H      -10.479     -13.176     -15.676

 3  4  5  6  7  8  9  10  11  12  22  25  29  30  31  32 0
 6-311+G(2d,p)
 ****
 33  36  37 0
 6-311+G(2d,p)
 ****
 1  2  13  14  15  16  17  18  19  20  21  23  24  26 0
 3-21G
 ****
 27  28  34  35  38  39  40  41  42  43  44  45  46  47  48 0
 3-21G
 ****


