%nproc=1
%NoSave
%Mem=1900MB
#P OB98/GEN NMR

erre ene a

0 1
  C      102.018     294.127    -212.306
  O      102.600     295.180    -213.055
  H      102.762     293.333    -212.182
  H      101.166     293.724    -212.853
  H      101.706     294.480    -211.319
  P      101.807     296.567    -213.097
  C      101.769     296.660    -215.688
  O      102.189     297.285    -214.493
  C      102.728     297.008    -216.832
  O      102.322     298.279    -217.419
  C      104.206     297.149    -216.393
  O      105.038     296.611    -217.408
  C      104.398     298.655    -216.303
  O      105.768     299.034    -216.482
  C      103.475     299.138    -217.409
  N      105.134     303.914    -217.425
  C      105.780     302.731    -217.770
  N      107.062     302.854    -218.185
  N      105.210     301.545    -217.727
  C      103.920     301.602    -217.344
  C      103.165     302.694    -216.962
  C      103.819     303.990    -216.993
  O      103.295     305.062    -216.667
  N      101.895     302.326    -216.603
  C      101.871     301.003    -216.753
  N      103.086     300.518    -217.208
  O      102.567     297.453    -212.003
  O      100.341     296.478    -212.810
  H      106.294     298.567    -215.784
  H      101.956     297.662    -211.267
  H      105.612     304.786    -217.468
  H      101.026     300.369    -216.549
  H      103.944     299.094    -218.408
  H      104.059     299.017    -215.327
  H      107.556     303.736    -218.282
  H      104.411     296.649    -215.440
  H      107.547     302.012    -218.477
  H      102.621     296.251    -217.619
  H      100.769     296.998    -215.946
  H      101.748     295.568    -215.537
  P      104.973     295.015    -217.634
  C      107.421     294.581    -218.356
  O      106.075     294.622    -218.754
  O      103.572     294.804    -218.382
  O      105.045     294.226    -216.372
  H      102.938     294.386    -217.782
  H      108.032     294.310    -219.192
  H      107.541     293.857    -217.577
  H      107.716     295.545    -217.996

 6  7  8  9  10  11  12  13  14  15  26  29  33  34 0
 6-311+G(2d,p)
 ****
 36  38  39  40  41 0
 6-311+G(2d,p)
 ****
 1  2  3  4  5  16  17  18  19  20  21  22  23  24  25 0
 3-21G
 ****
 27  28  30  31  32  35  37  42  43  44  45  46  47 0
 3-21G
 ****
 48  49 0
 3-21G
 ****


