%nproc=1
%NoSave
%Mem=1900MB
#P OB98/GEN NMR

erre ene a

0 1
  C     -746.821     131.347    -417.136
  O     -747.265     130.376    -416.211
  H     -747.100     131.027    -418.145
  H     -745.735     131.451    -417.088
  H     -747.299     132.313    -416.929
  P     -746.928     130.654    -414.667
  C     -744.912     129.009    -414.685
  O     -745.357     130.348    -414.489
  C     -743.429     128.980    -415.045
  O     -743.225     129.499    -416.384
  C     -742.542     129.809    -414.117
  O     -742.212     129.081    -412.953
  C     -741.332     130.066    -415.013
  O     -740.439     128.932    -415.036
  C     -741.993     130.278    -416.389
  N     -743.513     133.457    -419.994
  C     -743.391     132.085    -420.019
  N     -743.669     131.469    -421.188
  N     -743.030     131.366    -418.982
  C     -742.756     132.122    -417.891
  C     -742.847     133.492    -417.744
  C     -743.286     134.262    -418.888
  O     -743.475     135.481    -418.914
  N     -742.506     133.883    -416.481
  C     -742.156     132.761    -415.876
  N     -742.274     131.667    -416.697
  O     -747.629     129.427    -413.903
  O     -747.393     131.971    -414.134
  H     -740.034     128.828    -414.156
  H     -747.903     129.723    -413.019
  H     -743.817     133.952    -420.821
  H     -741.817     132.691    -414.846
  H     -741.371     129.886    -417.203
  H     -740.740     130.916    -414.660
  H     -743.629     131.966    -422.077
  H     -743.018     130.770    -413.869
  H     -743.562     130.461    -421.224
  H     -743.105     127.931    -415.055
  H     -745.491     128.561    -415.509
  H     -745.082     128.431    -413.774
  P     -742.152     129.889    -411.562
  C     -739.688     130.695    -411.827
  O     -741.063     131.056    -411.762
  O     -741.414     128.864    -410.569
  O     -743.487     130.331    -411.032
  H     -741.563     129.142    -409.640
  H     -739.094     131.575    -411.961
  H     -739.532     130.031    -412.651
  H     -739.404     130.208    -410.918

 6  7  8  9  10  11  12  13  14  15  26  29  33  34 0
 6-311+G(2d,p)
 ****
 36  38  39  40  41 0
 6-311+G(2d,p)
 ****
 1  2  3  4  5  16  17  18  19  20  21  22  23  24  25 0
 3-21G
 ****
 27  28  30  31  32  35  37  42  43  44  45  46  47 0
 3-21G
 ****
 48  49 0
 3-21G
 ****


