%nproc=1
%NoSave
%Mem=1900MB
#P OB98/GEN NMR

erre ene a

0 1
  C     -207.149     164.737      50.327
  O     -206.402     165.615      51.144
  H     -207.657     164.012      50.969
  H     -206.489     164.195      49.646
  H     -207.903     165.289      49.760
  P     -205.553     166.781      50.438
  C     -203.695     166.706      48.633
  O     -204.392     165.997      49.646
  C     -202.447     165.936      48.215
  O     -201.459     165.923      49.269
  C     -202.678     164.463      47.893
  O     -203.335     164.243      46.656
  C     -201.244     163.969      47.880
  O     -200.599     164.382      46.663
  C     -200.664     164.715      49.105
  N     -200.699     163.908      50.326
  C     -199.667     162.979      50.493
  O     -198.788     162.855      49.641
  N     -199.668     162.181      51.613
  C     -200.630     162.284      52.477
  N     -200.587     161.465      53.563
  C     -201.749     163.235      52.328
  C     -201.720     164.009      51.248
  O     -205.088     167.886      51.332
  O     -206.482     167.281      49.235
  H     -201.132     164.029      45.926
  H     -206.007     168.013      48.770
  H     -202.541     163.263      53.062
  H     -202.511     164.730      51.064
  H     -199.630     165.030      48.917
  H     -201.162     162.880      47.938
  H     -203.211     163.962      48.711
  H     -202.001     166.468      47.362
  H     -199.809     160.822      53.637
  H     -203.435     167.694      49.025
  H     -201.331     161.424      54.247
  H     -204.335     166.830      47.754
  P     -204.438     163.073      46.613
  C     -204.366     160.479      46.919
  O     -203.645     161.700      46.844
  O     -204.858     163.029      45.073
  O     -205.609     163.270      47.527
  H     -205.690     163.522      44.928
  H     -203.683     159.670      47.075
  H     -204.900     160.324      46.005
  H     -205.058     160.523      47.734

 6  7  8  9  10  11  12  13  14  15  16  26  30  31  32  33  35 0
 6-311+G(2d,p)
 ****
 37  38 0
 6-311+G(2d,p)
 ****
 1  2  3  4  5  17  18  19  20  21  22  23  24  25 0
 3-21G
 ****
 27  28  29  34  36  39  40  41  42  43  44  45  46 0
 3-21G
 ****


