%nproc=1
%NoSave
%Mem=1900MB
#P OB98/GEN NMR

erre ene a

0 1
  C       65.147     109.340       8.690
  O       64.059     109.411       9.630
  P       64.029     110.612      10.701
  C       64.190     110.928      13.292
  O       64.122     110.026      12.197
  C       64.367     110.176      14.623
  O       63.134     109.458      14.969
  C       65.502     109.142      14.627
  O       66.048     109.107      15.951
  C       64.761     107.843      14.336
  O       65.494     106.686      14.708
  C       63.489     108.072      15.144
  N       62.366     107.200      14.765
  C       62.563     105.820      14.818
  O       63.630     105.284      15.118
  N       61.467     105.065      14.491
  C       60.248     105.522      14.086
  O       59.323     104.795      13.776
  C       60.118     106.991      14.015
  C       61.164     107.747      14.355
  O       62.503     111.097      10.622
  O       64.949     111.757      10.412
  H       65.454     106.618      15.678
  H       62.471     112.069      10.578
  H       61.576     104.060      14.549
  H       59.162     107.399      13.695
  H       61.084     108.834      14.318
  H       63.702     107.931      16.214
  H       64.564     107.781      13.256
  H       66.290     109.364      13.894
  H       64.531     110.922      15.415
  H       63.264     111.512      13.338
  H       65.020     111.624      13.136
  P       67.554     109.647      16.172
  C       69.906     108.503      16.347
  O       68.512     108.359      16.230
  O       67.467     110.107      17.709
  O       67.960     110.732      15.242
  H       67.023     109.458      18.275
  H       70.172     109.301      17.051
  H       70.335     108.722      15.355
  H       70.332     107.564      16.716
  H       65.015     108.489       8.055
  H       66.072     109.249       9.221
  H       65.163     110.230       8.096

 3  4  5  6  7  8  9  10  11  12  13  23  28  29  30  31  32 0
 6-311+G(2d,p)
 ****
 33  34 0
 6-311+G(2d,p)
 ****
 1  2  14  15  16  17  18  19  20  21  22  24  25  26 0
 3-21G
 ****
 27  35  36  37  38  39  40  41  42  43  44  45 0
 3-21G
 ****


