%nproc=1
%NoSave
%Mem=1900MB
#P OB98/GEN NMR

erre ene a

0 1
  C       -0.905     -17.297      -6.788
  O       -0.949     -18.141      -7.920
  H       -0.061     -16.611      -6.895
  H       -0.759     -17.890      -5.883
  H       -1.823     -16.710      -6.704
  P       -2.212     -19.108      -8.114
  C       -4.706     -18.803      -8.691
  O       -3.491     -18.165      -8.321
  C       -5.891     -17.910      -8.337
  O       -6.024     -17.802      -6.904
  C       -5.765     -16.479      -8.849
  O       -6.025     -16.415     -10.238
  C       -6.788     -15.774      -7.971
  O       -8.118     -15.976      -8.472
  C       -6.589     -16.503      -6.621
  N       -5.748     -15.759      -5.685
  C       -5.614     -16.299      -4.410
  O       -6.192     -17.323      -4.050
  N       -4.802     -15.607      -3.550
  C       -4.195     -14.413      -3.811
  O       -3.520     -13.805      -2.985
  C       -4.400     -13.873      -5.162
  C       -5.153     -14.560      -6.023
  O       -2.378     -20.174      -7.083
  O       -1.987     -19.731      -9.573
  H       -8.728     -15.662      -7.777
  H       -1.616     -20.629      -9.493
  H       -4.704     -15.976      -2.618
  H       -3.938     -12.925      -5.402
  H       -5.320     -14.174      -7.022
  H       -7.558     -16.681      -6.141
  H       -6.630     -14.696      -7.925
  H       -4.771     -16.080      -8.619
  H       -6.803     -18.382      -8.725
  H       -4.786     -19.750      -8.145
  H       -4.684     -19.011      -9.765
  P       -5.360     -15.277     -11.143
  C       -2.972     -14.530     -11.690
  O       -3.806     -15.190     -10.746
  O       -6.074     -13.967     -11.147
  O       -5.324     -15.919     -12.608
  H       -6.008     -15.504     -13.169
  H       -1.963     -14.526     -11.333
  H       -3.308     -13.523     -11.820
  H       -3.017     -15.045     -12.627

 6  7  8  9  10  11  12  13  14  15  16  26  31  32  33  34  35 0
 6-311+G(2d,p)
 ****
 36  37 0
 6-311+G(2d,p)
 ****
 1  2  3  4  5  17  18  19  20  21  22  23  24  25 0
 3-21G
 ****
 27  28  29  30  38  39  40  41  42  43  44  45 0
 3-21G
 ****


