%nproc=1
%NoSave
%Mem=1900MB
#P OB98/GEN NMR

erre ene a

0 1
  C      467.999    -290.460      44.175
  O      467.955    -291.849      44.518
  P      468.861    -292.336      45.757
  C      467.215    -294.286      46.354
  O      468.522    -293.894      45.956
  C      466.967    -295.762      46.013
  O      466.516    -295.878      44.621
  C      468.194    -296.668      46.184
  O      467.714    -297.923      46.690
  C      468.698    -296.823      44.763
  O      469.495    -297.994      44.605
  C      467.372    -296.847      43.989
  N      467.538    -296.559      42.565
  C      467.825    -297.635      41.730
  O      468.021    -298.780      42.153
  N      467.932    -297.352      40.399
  C      467.872    -296.110      39.841
  O      467.981    -295.910      38.633
  C      467.684    -294.997      40.777
  C      467.536    -295.263      42.078
  O      468.136    -291.606      46.978
  O      470.304    -292.003      45.583
  H      467.163    -291.569      46.892
  H      468.904    -298.781      44.644
  H      468.112    -298.120      39.769
  H      467.682    -293.987      40.379
  H      467.415    -294.463      42.803
  H      466.889    -297.828      44.077
  H      469.294    -295.956      44.475
  H      468.941    -296.248      46.864
  H      466.139    -296.114      46.652
  H      466.470    -293.672      45.830
  H      467.089    -294.091      47.418
  P      468.486    -298.588      47.933
  C      466.458    -300.176      48.386
  O      467.843    -300.030      48.169
  O      467.883    -297.717      49.140
  O      469.977    -298.512      47.855
  H      466.914    -297.631      49.098
  H      466.189    -301.225      48.288
  H      465.872    -299.591      47.667
  H      466.205    -299.842      49.405
  H      467.354    -290.278      43.341
  H      469.001    -290.188      43.918
  H      467.674    -289.876      45.011

 3  4  5  6  7  8  9  10  11  12  13  24  28  29  30  31  32 0
 6-311+G(2d,p)
 ****
 33  34 0
 6-311+G(2d,p)
 ****
 1  2  14  15  16  17  18  19  20  21  22  23  25  26  27 0
 3-21G
 ****
 35  36  37  38  39  40  41  42  43  44  45 0
 3-21G
 ****


