%nproc=1
%NoSave
%Mem=1900MB
#P OB98/GEN NMR

erre ene a

0 1
  C       43.502    -350.693     343.103
  O       44.115    -351.911     342.722
  H       42.435    -350.873     343.261
  H       43.622    -349.947     342.311
  H       43.942    -350.323     344.034
  P       45.698    -351.859     342.455
  C       45.240    -352.600     339.997
  O       45.966    -352.820     341.201
  C       45.618    -353.653     338.951
  O       46.986    -353.393     338.502
  C       45.592    -355.099     339.472
  O       45.289    -355.964     338.368
  C       47.038    -355.302     339.896
  O       47.315    -356.664     340.110
  C       47.740    -354.601     338.736
  N       52.510    -356.443     338.893
  C       51.341    -357.007     338.519
  N       50.114    -356.451     338.494
  C       50.165    -355.165     338.885
  C       51.282    -354.453     339.288
  C       52.504    -355.146     339.284
  N       53.694    -354.577     339.675
  N       50.935    -353.152     339.624
  C       49.636    -353.088     339.428
  N       49.125    -354.279     338.990
  O       46.304    -352.671     343.694
  O       46.284    -350.492     342.339
  H       46.762    -357.021     340.841
  H       46.568    -352.051     344.400
  H       51.401    -358.045     338.201
  H       49.016    -352.212     339.596
  H       47.704    -355.203     337.816
  H       47.241    -354.785     340.843
  H       44.860    -355.256     340.273
  H       44.972    -353.531     338.070
  H       45.480    -351.598     339.622
  H       44.166    -352.661     340.203
  H       54.525    -355.149     339.664
  H       53.704    -353.616     339.987
  P       43.777    -356.485     338.175
  C       44.388    -358.841     339.147
  O       43.801    -358.092     338.094
  O       43.484    -356.085     336.646
  O       42.764    -355.889     339.087
  H       42.523    -355.937     336.534
  H       44.315    -359.885     338.926
  H       43.874    -358.633     340.062
  H       45.418    -358.569     339.247

 6  7  8  9  10  11  12  13  14  15  25  28  32  33  34  35 0
 6-311+G(2d,p)
 ****
 36  37  40 0
 6-311+G(2d,p)
 ****
 1  2  3  4  5  16  17  18  19  20  21  22  23  24 0
 3-21G
 ****
 26  27  29  30  31  38  39 41  42  43  44  45  46  47  48 0
 3-21G
 ****


