%nproc=1
%NoSave
%Mem=1900MB
#P OB98/GEN NMR

erre ene a

0 1
  C     -252.796    -712.520    -488.555
  O     -251.710    -713.216    -489.157
  P     -250.826    -714.177    -488.230
  C     -251.218    -716.149    -489.931
  O     -250.297    -715.342    -489.177
  C     -250.453    -716.982    -490.972
  O     -250.142    -716.161    -492.118
  C     -249.145    -717.545    -490.495
  O     -249.310    -718.678    -489.671
  C     -248.443    -717.839    -491.836
  O     -248.918    -719.083    -492.378
  C     -248.910    -716.670    -492.706
  N     -247.922    -715.589    -492.831
  C     -247.497    -715.290    -494.115
  O     -247.930    -715.866    -495.118
  N     -246.537    -714.314    -494.237
  C     -245.938    -713.654    -493.178
  O     -245.061    -712.809    -493.339
  C     -246.377    -714.042    -491.843
  C     -247.332    -714.993    -491.731
  O     -251.965    -714.843    -487.336
  O     -249.771    -713.423    -487.475
  H     -252.815    -714.881    -487.796
  H     -249.884    -718.972    -492.546
  H     -246.248    -714.044    -495.162
  H     -245.920    -713.555    -490.999
  H     -247.679    -715.286    -490.742
  H     -249.170    -717.006    -493.701
  H     -247.354    -717.930    -491.732
  H     -248.562    -716.788    -489.959
  H     -251.127    -717.782    -491.331
  H     -251.926    -715.508    -490.430
  H     -251.752    -716.806    -489.231
  P     -248.358    -718.778    -488.358
  C     -250.135    -720.178    -487.036
  O     -248.826    -720.089    -487.560
  O     -248.891    -717.548    -487.482
  O     -246.891    -718.725    -488.685
  H     -249.859    -717.491    -487.477
  H     -250.377    -721.219    -486.847
  H     -250.873    -719.763    -487.758
  H     -250.183    -719.624    -486.095
  H     -253.289    -711.922    -489.293
  H     -252.426    -711.889    -487.774
  H     -253.489    -713.225    -488.146

 3  4  5  6  7  8  9  10  11  12  13  24  28  29  30  31  32 0
 6-311+G(2d,p)
 ****
 33  34 0
 6-311+G(2d,p)
 ****
 1  2  14  15  16  17  18  19  20  21  22  23  25  26  27 0
 3-21G
 ****
 35  36  37  38  39  40  41  42  43  44  45 0
 3-21G
 ****


