%nproc=1
%NoSave
%Mem=1900MB
#P OB98/GEN NMR

erre ene a

0 1
  C     -237.631    -206.691     314.570
  O     -237.480    -205.953     313.369
  P     -236.261    -206.344     312.398
  C     -235.529    -205.501     310.014
  O     -236.518    -205.545     311.033
  C     -236.124    -204.936     308.718
  O     -237.100    -205.853     308.186
  C     -236.864    -203.616     308.893
  O     -235.973    -202.518     309.011
  C     -237.729    -203.595     307.633
  O     -236.955    -203.161     306.503
  C     -238.100    -205.083     307.486
  N     -239.442    -205.400     307.969
  C     -240.344    -205.875     307.022
  O     -240.049    -206.032     305.833
  N     -241.607    -206.144     307.478
  C     -242.069    -205.932     308.744
  O     -243.220    -206.153     309.090
  C     -241.079    -205.399     309.696
  C     -239.835    -205.159     309.272
  O     -236.633    -207.862     312.059
  O     -234.923    -206.142     313.026
  H     -237.591    -208.023     312.119
  H     -237.591    -203.015     305.774
  H     -242.272    -206.511     306.809
  H     -241.410    -205.204     310.708
  H     -239.096    -204.754     309.957
  H     -238.034    -205.390     306.428
  H     -238.587    -202.924     307.720
  H     -237.512    -203.660     309.779
  H     -235.315    -204.833     307.988
  H     -235.157    -206.515     309.834
  H     -234.694    -204.878     310.351
  P     -236.612    -201.117     309.480
  C     -235.623    -198.917     310.487
  O     -235.399    -200.240     310.053
  O     -237.428    -201.565     310.782
  O     -237.442    -200.460     308.426
  H     -236.934    -202.193     311.335
  H     -234.804    -198.623     311.154
  H     -236.567    -198.829     311.032
  H     -235.635    -198.246     309.626
  H     -238.477    -206.323     315.111
  H     -236.751    -206.583     315.168
  H     -237.779    -207.725     314.337

 3  4  5  6  7  8  9  10  11  12  13  24  28  29  30  31  32 0
 6-311+G(2d,p)
 ****
 33  34 0
 6-311+G(2d,p)
 ****
 1  2  14  15  16  17  18  19  20  21  22  23  25  26  27 0
 3-21G
 ****
 35  36  37  38  39  40  41  42  43  44  45 0
 3-21G
 ****


