%nproc=1
%NoSave
%Mem=1900MB
#P OB98/GEN NMR

erre ene a

0 1
  C       48.670    -185.676     106.973
  O       48.144    -186.747     107.754
  P       47.940    -186.718     109.336
  C       50.198    -187.867     110.041
  O       49.377    -186.708     110.037
  C       51.039    -187.945     111.326
  O       51.892    -186.763     111.397
  C       50.175    -187.954     112.594
  O       50.628    -188.874     113.585
  C       50.125    -186.485     112.984
  O       49.768    -186.270     114.340
  C       51.514    -186.000     112.567
  N       54.318    -181.733     112.531
  C       54.626    -182.976     113.042
  N       55.833    -183.107     113.635
  N       53.819    -184.002     112.990
  C       52.617    -183.718     112.442
  C       52.186    -182.518     111.914
  C       53.106    -181.403     111.930
  O       52.892    -180.284     111.475
  N       50.903    -182.616     111.438
  C       50.550    -183.860     111.690
  N       51.562    -184.573     112.295
  O       46.932    -187.675     109.882
  O       47.391    -185.226     109.621
  H       49.628    -185.312     114.462
  H       46.795    -185.295     110.392
  H       54.989    -180.982     112.576
  H       49.589    -184.300     111.448
  H       52.263    -186.181     113.341
  H       49.351    -186.006     112.368
  H       56.451    -182.333     113.818
  H       49.160    -188.301     112.372
  H       55.962    -183.950     114.199
  H       51.686    -188.827     111.272
  H       50.856    -187.776     109.171
  H       49.597    -188.769     109.909
  P       50.075    -190.334     113.918
  C       47.937    -189.606     115.133
  O       48.478    -190.269     114.004
  O       50.505    -190.606     115.437
  O       50.603    -191.419     113.032
  H       51.106    -191.378     115.475
  H       46.876    -189.857     115.213
  H       48.034    -188.523     115.002
  H       48.446    -189.917     116.048
  H       48.697    -185.965     105.943
  H       49.661    -185.446     107.305
  H       48.047    -184.813     107.085

 3  4  5  6  7  8  9  10  11  12  23  26  30  31 0
 6-311+G(2d,p)
 ****
 33  35  36  37  38 0
 6-311+G(2d,p)
 ****
 1  2  13  14  15  16  17  18  19  20  21  22  24  25 0
 3-21G
 ****
 27  28  29  32  34  39  40  41  42  43  44  45  46  47  48  49 0
 3-21G
 ****


