%nproc=1
%NoSave
%Mem=1900MB
#P OB98/GEN NMR

erre ene a

0 1
  C     1083.634    -287.230     784.876
  O     1083.366    -285.853     785.029
  H     1084.646    -287.432     785.235
  H     1083.571    -287.508     783.821
  H     1082.931    -287.825     785.462
  P     1081.860    -285.363     784.787
  C     1081.204    -284.058     786.939
  O     1081.165    -285.293     786.235
  C     1081.979    -284.227     788.247
  O     1083.380    -284.473     787.922
  C     1081.931    -282.994     789.165
  O     1081.904    -283.445     790.517
  C     1083.260    -282.317     788.890
  O     1083.704    -281.472     789.948
  C     1084.168    -283.535     788.676
  N     1085.399    -283.195     787.959
  C     1086.479    -282.754     788.726
  O     1086.500    -282.714     789.952
  N     1087.576    -282.353     788.010
  C     1087.685    -282.322     786.650
  O     1088.695    -281.928     786.073
  C     1086.519    -282.792     785.902
  C     1085.449    -283.194     786.581
  O     1081.173    -286.639     784.107
  O     1081.707    -284.125     783.962
  H     1081.264    -286.598     783.140
  H     1084.645    -281.256     789.777
  H     1088.366    -282.032     788.549
  H     1086.571    -282.776     784.820
  H     1084.551    -283.527     786.053
  H     1084.418    -284.000     789.631
  H     1083.201    -281.711     787.977
  H     1081.083    -282.327     788.972
  H     1081.612    -285.116     788.766
  H     1080.178    -283.745     787.175
  H     1081.669    -283.295     786.307
  P     1080.606    -284.264     790.995
  C     1081.827    -286.529     791.507
  O     1080.928    -285.802     790.673
  O     1079.539    -283.841     789.879
  O     1080.204    -283.959     792.400
  H     1079.948    -283.717     789.002
  H     1081.920    -287.531     791.143
  H     1081.450    -286.547     792.508
  H     1082.786    -286.055     791.496

 6  7  8  9  10  11  12  13  14  15  16  27  31  32  33  34  35 0
 6-311+G(2d,p)
 ****
 36  37 0
 6-311+G(2d,p)
 ****
 1  2  3  4  5  17  18  19  20  21  22  23  24  25 0
 3-21G
 ****
 26  28  29  30  38  39  40  41  42  43  44  45 0
 3-21G
 ****


