%nproc=1
%NoSave
%Mem=1900MB
#P OB98/GEN NMR

erre ene a

0 1
  C       54.402     308.720     944.700
  O       55.112     307.780     945.511
  P       55.898     306.530     944.878
  C       54.495     304.390     945.141
  O       54.857     305.462     944.273
  C       53.717     303.277     944.431
  O       54.577     302.528     943.529
  C       53.063     302.250     945.371
  O       51.873     301.806     944.705
  C       54.099     301.146     945.411
  O       53.582     299.894     945.844
  C       54.559     301.151     943.952
  N       57.096     297.102     942.094
  C       55.820     297.510     941.944
  N       55.227     298.609     942.440
  C       56.107     299.367     943.123
  C       57.449     299.088     943.350
  C       57.936     297.882     942.810
  N       59.226     297.443     942.999
  N       58.024     300.073     944.122
  C       57.050     300.927     944.358
  N       55.872     300.546     943.767
  O       56.923     305.931     945.783
  O       56.605     307.135     943.577
  H       54.291     299.232     945.800
  H       57.533     306.822     943.542
  H       55.177     296.850     941.356
  H       57.132     301.820     944.958
  H       53.862     300.613     943.302
  H       54.910     301.428     946.091
  H       52.824     302.648     946.360
  H       52.955     303.753     943.805
  H       53.891     304.799     945.961
  H       59.462     296.523     942.652
  H       59.830     297.947     943.633
  H       55.410     303.976     945.582
  P       50.416     302.281     945.169
  C       49.841     300.219     946.580
  O       50.148     301.604     946.595
  O       49.335     302.064     944.169
  O       50.593     303.831     945.526
  H       49.719     304.266     945.527
  H       48.808     300.080     946.259
  H       49.958     299.817     947.586
  H       50.519     299.682     945.904
  H       53.956     309.465     945.325
  H       53.637     308.211     944.151
  H       55.081     309.187     944.017

 3  4  5  6  7  8  9  10  11  12  22  25  29  30  31  32 0
 6-311+G(2d,p)
 ****
 33  36  37 0
 6-311+G(2d,p)
 ****
 1  2  13  14  15  16  17  18  19  20  21  23  24  26 0
 3-21G
 ****
 27  28  34  35  38  39  40  41  42  43  44  45  46  47  48 0
 3-21G
 ****


