%nproc=1
%NoSave
%Mem=1900MB
#P OB98/GEN NMR

erre ene a

0 1
  C      382.219    -894.670    -509.537
  O      381.128    -893.780    -509.422
  H      382.654    -894.820    -508.539
  H      382.981    -894.240    -510.189
  H      381.894    -895.640    -509.933
  P      380.107    -893.720    -510.658
  C      377.938    -894.330    -509.370
  O      378.910    -894.730    -510.318
  C      378.110    -895.110    -508.063
  O      379.453    -894.860    -507.549
  C      377.114    -894.720    -506.957
  O      376.752    -895.900    -506.220
  C      377.945    -893.830    -506.051
  O      377.419    -893.760    -504.732
  C      379.313    -894.490    -506.162
  N      382.848    -893.960    -502.647
  C      382.045    -895.040    -502.961
  N      382.163    -896.140    -502.164
  N      381.204    -895.060    -503.950
  C      381.200    -893.900    -504.658
  C      381.933    -892.760    -504.456
  C      382.851    -892.760    -503.335
  O      383.578    -891.820    -502.997
  N      381.602    -891.780    -505.368
  C      380.642    -892.320    -506.107
  N      380.362    -893.620    -505.719
  O      380.917    -894.460    -511.831
  O      379.677    -892.350    -511.065
  H      377.333    -894.680    -504.391
  H      381.384    -893.790    -512.377
  H      383.467    -894.010    -501.849
  H      380.112    -891.850    -506.920
  H      379.367    -895.400    -505.559
  H      377.963    -892.810    -506.461
  H      382.808    -896.230    -501.403
  H      376.204    -894.240    -507.330
  H      381.606    -896.960    -502.409
  H      378.045    -896.190    -508.286
  H      376.940    -894.530    -509.766
  H      378.034    -893.250    -509.193
  P      375.549    -896.800    -506.775
  C      376.388    -899.270    -506.841
  O      376.177    -898.050    -507.554
  O      374.943    -895.900    -507.951
  O      374.518    -897.130    -505.744
  H      373.982    -896.030    -508.000
  H      376.810    -900.000    -507.500
  H      375.453    -899.629    -506.464
  H      377.058    -899.096    -506.026

 6  7  8  9  10  11  12  13  14  15  26  29  33  34 0
 6-311+G(2d,p)
 ****
 36  38  39  40  41 0
 6-311+G(2d,p)
 ****
 1  2  3  4  5  16  17  18  19  20  21  22  23  24  25 0
 3-21G
 ****
 27  28  30  31  32  35  37  42  43  44  45  46  47 0
 3-21G
 ****
 48  49 0
 3-21G
 ****


