%nproc=1
%NoSave
%Mem=1900MB
#P OB98/GEN NMR

erre ene a

0 1
  C       49.497    -115.671    -155.797
  O       50.578    -116.210    -155.062
  P       50.842    -115.724    -153.559
  C       49.808    -117.709    -152.298
  O       49.681    -116.333    -152.637
  C       50.358    -117.855    -150.881
  O       49.523    -117.149    -149.939
  C       50.413    -119.295    -150.382
  O       51.503    -119.986    -150.956
  C       50.512    -119.080    -148.876
  O       51.868    -118.796    -148.494
  C       49.628    -117.841    -148.674
  N       46.953    -119.201    -144.551
  C       48.281    -119.100    -144.768
  N       48.919    -118.768    -145.910
  C       48.035    -118.552    -146.900
  C       46.653    -118.652    -146.835
  C       46.105    -118.973    -145.583
  N       44.753    -119.020    -145.332
  N       46.094    -118.386    -148.071
  C       47.119    -118.139    -148.862
  N       48.302    -118.164    -148.183
  O       51.081    -114.260    -153.394
  O       52.130    -116.561    -153.110
  H       51.879    -118.683    -147.524
  H       52.854    -115.946    -152.887
  H       48.915    -119.303    -143.911
  H       47.052    -117.922    -149.920
  H       50.073    -117.132    -147.965
  H       50.189    -119.955    -148.303
  H       49.469    -119.804    -150.609
  H       51.356    -117.399    -150.854
  H       50.491    -118.178    -153.010
  H       44.467    -119.115    -144.370
  H       44.124    -118.563    -145.989
  H       48.829    -118.195    -152.375
  P       51.471    -121.582    -151.053
  C       51.177    -121.842    -153.587
  O       50.562    -121.956    -152.320
  O       51.132    -122.302    -149.791
  O       52.946    -121.959    -151.556
  H       53.203    -122.825    -151.187
  H       51.215    -120.790    -153.884
  H       50.583    -122.395    -154.317
  H       52.190    -122.253    -153.568
  H       49.476    -116.109    -156.773
  H       49.618    -114.611    -155.884
  H       48.579    -115.885    -155.290

 3  4  5  6  7  8  9  10  11  12  22  25  29  30  31  32 0
 6-311+G(2d,p)
 ****
 33  36  37 0
 6-311+G(2d,p)
 ****
 1  2  13  14  15  16  17  18  19  20  21  23  24  26 0
 3-21G
 ****
 27  28  34  35  38  39  40  41  42  43  44  45  46  47  48 0
 3-21G
 ****


