%nproc=1
%NoSave
%Mem=1900MB
#P OB98/GEN NMR

erre ene a

0 1
  C     -165.372     106.689     -21.060
  O     -166.239     105.575     -20.917
  P     -166.770     104.866     -22.254
  C     -164.941     103.041     -22.126
  O     -165.514     104.094     -22.890
  C     -165.071     101.708     -22.853
  O     -164.129     100.764     -22.275
  C     -166.469     101.076     -22.769
  O     -166.831     100.558     -24.056
  C     -166.268      99.894     -21.837
  O     -167.228      98.867     -22.062
  C     -164.831      99.507     -22.184
  N     -162.241      95.204     -21.670
  C     -162.516      95.938     -22.807
  N     -162.085      95.418     -23.977
  N     -163.157      97.076     -22.800
  C     -163.499      97.491     -21.555
  C     -163.276      96.857     -20.355
  C     -162.619      95.568     -20.385
  O     -162.427      94.827     -19.423
  N     -163.757      97.596     -19.304
  C     -164.273      98.672     -19.866
  N     -164.185      98.631     -21.235
  O     -166.999     106.101     -23.245
  O     -168.013     104.060     -22.098
  H     -167.113      98.564     -22.983
  H     -167.921     106.098     -23.569
  H     -161.760      94.324     -21.735
  H     -164.747      99.484     -19.329
  H     -164.790      99.022     -23.168
  H     -166.357     100.234     -20.800
  H     -161.555      94.565     -24.051
  H     -167.249     101.756     -22.412
  H     -162.257      95.953     -24.819
  H     -164.775     101.852     -23.900
  H     -165.457     102.975     -21.162
  H     -163.886     103.269     -21.944
  P     -168.396     100.272     -24.284
  C     -168.758     102.832     -24.591
  O     -169.144     101.642     -23.932
  O     -168.776      99.305     -23.069
  O     -168.714      99.674     -25.614
  H     -169.556      98.764     -23.295
  H     -168.066     102.641     -25.416
  H     -168.273     103.496     -23.871
  H     -169.650     103.325     -24.985
  H     -165.101     107.056     -20.092
  H     -165.871     107.461     -21.608
  H     -164.491     106.390     -21.588

 3  4  5  6  7  8  9  10  11  12  23  26  30  31  33  0
 6-311+G(2d,p)
 ****
 35  36  37  38 0
 6-311+G(2d,p)
 ****
 1  2  13  14  15  16  17  18  19  20  21  22  24  25  27  28  29 0
 3-21G
 ****
 32  34  39  40  41  42  43  44  45  46  47  48  49 0
 3-21G
 ****


