%nproc=1
%NoSave
%Mem=1900MB
#P OB98/GEN NMR

erre ene a

0 1
  C      -29.755    -465.818     301.835
  O      -30.249    -466.503     302.965
  H      -30.349    -466.116     300.958
  H      -28.715    -466.099     301.653
  H      -29.837    -464.738     301.964
  P      -29.648    -466.153     304.409
  C      -27.500    -467.561     304.155
  O      -28.048    -466.260     304.301
  C      -26.742    -467.977     305.420
  O      -26.231    -469.322     305.234
  C      -25.557    -467.072     305.762
  O      -25.468    -466.923     307.179
  C      -24.359    -467.839     305.239
  O      -23.159    -467.506     305.935
  C      -24.804    -469.291     305.452
  N      -20.349    -471.403     304.327
  C      -20.712    -470.586     305.394
  N      -19.733    -470.273     306.275
  N      -21.914    -470.118     305.564
  C      -22.796    -470.538     304.619
  C      -22.568    -471.345     303.529
  C      -21.220    -471.839     303.335
  O      -20.835    -472.551     302.412
  N      -23.714    -471.521     302.789
  C      -24.629    -470.819     303.434
  N      -24.121    -470.199     304.543
  O      -30.251    -466.924     305.546
  O      -29.895    -464.584     304.572
  H      -22.428    -467.993     305.499
  H      -30.638    -464.405     305.185
  H      -19.406    -471.727     304.247
  H      -25.666    -470.729     303.132
  H      -24.607    -469.643     306.474
  H      -24.210    -467.619     304.174
  H      -18.783    -470.620     306.209
  H      -25.648    -466.080     305.299
  H      -19.975    -469.694     307.074
  H      -27.453    -468.024     306.255
  H      -26.814    -467.550     303.302
  H      -28.312    -468.275     303.951
  P      -25.799    -465.503     307.842
  C      -23.544    -464.306     307.454
  O      -24.918    -464.364     307.103
  O      -25.739    -465.456     309.336
  O      -27.278    -465.200     307.315
  H      -27.766    -464.716     308.009
  H      -23.069    -463.520     306.905
  H      -23.076    -465.239     307.219
  H      -23.452    -464.115     308.503

 6  7  8  9  10  11  12  13  14  15  26  29  33  34 0
 6-311+G(2d,p)
 ****
 36  38  39  40  41 0
 6-311+G(2d,p)
 ****
 1  2  3  4  5  16  17  18  19  20  21  22  23  24  25 0
 3-21G
 ****
 27  28  30  31  32  35  37  42  43  44  45  46  47 0
 3-21G
 ****
 48  49 0
 3-21G
 ****


