%nproc=1
%NoSave
%Mem=1900MB
#P OB98/GEN NMR

erre ene a

0 1
  C     -633.686      57.423     -33.559
  O     -632.332      56.971     -33.441
  P     -632.072      55.445     -33.021
  C     -631.381      55.833     -30.551
  O     -632.362      55.299     -31.445
  C     -631.903      55.816     -29.109
  O     -631.939      54.442     -28.637
  C     -631.030      56.579     -28.090
  O     -631.299      57.966     -27.886
  C     -631.411      55.867     -26.794
  O     -632.625      56.418     -26.260
  C     -631.642      54.422     -27.217
  N     -628.301      52.805     -23.683
  C     -629.343      53.674     -23.614
  N     -630.182      54.045     -24.609
  C     -629.879      53.423     -25.753
  C     -628.855      52.506     -25.966
  C     -628.041      52.196     -24.875
  N     -626.971      51.330     -24.928
  N     -628.850      52.070     -27.288
  C     -629.848      52.732     -27.855
  N     -630.504      53.551     -26.972
  O     -630.793      54.844     -33.500
  O     -633.337      54.683     -33.661
  H     -633.319      56.227     -26.912
  H     -633.052      53.817     -34.007
  H     -629.517      54.115     -22.642
  H     -630.109      52.659     -28.906
  H     -632.505      53.970     -26.713
  H     -630.642      55.997     -26.017
  H     -629.975      56.430     -28.300
  H     -632.937      56.216     -29.080
  H     -631.158      56.859     -30.845
  H     -626.413      51.196     -24.104
  H     -626.732      50.912     -25.820
  H     -630.478      55.255     -30.679
  P     -630.279      59.085     -28.420
  C     -629.326      59.560     -26.011
  O     -629.083      59.148     -27.352
  O     -630.918      60.421     -28.709
  O     -629.604      58.390     -29.679
  H     -629.017      57.628     -29.469
  H     -628.451      59.312     -25.410
  H     -630.204      59.054     -25.605
  H     -629.482      60.639     -26.001
  H     -633.694      58.454     -33.844
  H     -634.183      57.309     -32.619
  H     -634.192      56.844     -34.303

 3  4  5  6  7  8  9  10  11  12  22  25  29  30  31  32 0
 6-311+G(2d,p)
 ****
 33  36  37 0
 6-311+G(2d,p)
 ****
 1  2  13  14  15  16  17  18  19  20  21  23  24  26 0
 3-21G
 ****
 27  28  34  35  38  39  40  41  42  43  44  45  46  47  48 0
 3-21G
 ****


