%nproc=1
%NoSave
%Mem=1900MB
#P OB98/GEN NMR

erre ene a

0 1
  C     -596.165    -757.866     163.640
  O     -596.830    -758.419     164.767
  P     -597.432    -757.404     165.851
  C     -596.050    -758.510     167.758
  O     -596.340    -757.310     167.023
  C     -595.096    -758.205     168.906
  O     -593.877    -757.615     168.398
  C     -595.623    -757.239     169.925
  O     -596.467    -757.883     170.891
  C     -594.327    -756.779     170.598
  O     -593.886    -757.786     171.521
  C     -593.364    -756.698     169.413
  N     -590.313    -752.623     168.945
  C     -590.158    -753.781     169.633
  N     -591.035    -754.814     169.711
  C     -592.160    -754.555     169.024
  C     -592.462    -753.408     168.317
  C     -591.469    -752.408     168.274
  N     -591.608    -751.233     167.546
  N     -593.699    -753.489     167.736
  C     -594.160    -754.695     168.095
  N     -593.253    -755.373     168.857
  O     -598.630    -758.241     166.513
  O     -597.912    -756.092     165.300
  H     -593.100    -757.425     171.989
  H     -599.285    -757.643     166.890
  H     -589.238    -753.904     170.168
  H     -595.130    -755.089     167.820
  H     -592.350    -757.052     169.688
  H     -594.441    -755.834     171.166
  H     -596.114    -756.376     169.475
  H     -594.795    -759.169     169.372
  H     -595.585    -759.245     167.085
  H     -590.777    -750.666     167.429
  H     -592.375    -751.155     166.887
  H     -596.979    -758.927     168.146
  P     -597.315    -756.924     171.850
  C     -595.893    -757.819     173.832
  O     -596.399    -756.683     173.140
  O     -598.477    -757.888     172.375
  O     -597.860    -755.692     171.201
  H     -599.281    -757.369     172.644
  H     -595.050    -757.504     174.461
  H     -595.531    -758.589     173.128
  H     -596.662    -758.256     174.477
  H     -595.818    -758.656     163.007
  H     -595.332    -757.281     163.969
  H     -596.844    -757.244     163.095

 3  4  5  6  7  8  9  10  11  12  22  25  29  30  31  32 0
 6-311+G(2d,p)
 ****
 33  36  37 0
 6-311+G(2d,p)
 ****
 1  2  13  14  15  16  17  18  19  20  21  23  24  26 0
 3-21G
 ****
 27  28  34  35  38  39  40  41  42  43  44  45  46  47  48 0
 3-21G
 ****


