%nproc=1
%NoSave
%Mem=1900MB
#P OB98/GEN NMR

erre ene a

0 1
  C      373.655     265.211     300.762
  O      373.375     266.594     300.749
  P      372.606     267.258     301.984
  C      370.661     266.653     303.550
  O      371.392     266.294     302.388
  C      369.179     266.830     303.220
  O      368.624     265.583     302.736
  C      368.318     267.217     304.420
  O      368.476     268.585     304.741
  C      366.933     266.841     303.925
  O      366.394     267.873     303.072
  C      367.224     265.570     303.087
  N      363.604     262.079     303.990
  C      363.569     263.278     303.344
  N      364.572     264.164     303.190
  C      365.694     263.733     303.791
  C      365.868     262.548     304.501
  C      364.765     261.690     304.574
  N      364.803     260.442     305.155
  N      367.165     262.473     304.992
  C      367.748     263.595     304.590
  N      366.912     264.343     303.805
  O      372.242     268.702     301.814
  O      373.630     267.076     303.208
  H      366.337     268.688     303.614
  H      373.876     267.960     303.565
  H      362.615     263.552     302.908
  H      368.764     263.880     304.824
  H      366.661     265.564     302.147
  H      366.213     266.681     304.732
  H      368.574     266.590     305.284
  H      369.091     267.583     302.424
  H      371.063     267.598     303.941
  H      363.992     259.854     305.020
  H      365.713     260.010     305.324
  H      370.797     265.871     304.316
  P      368.284     269.089     306.248
  C      366.495     268.831     308.067
  O      366.942     268.401     306.797
  O      368.397     270.562     306.464
  O      369.435     268.300     307.053
  H      369.750     268.853     307.793
  H      367.099     268.350     308.842
  H      365.443     268.547     308.196
  H      366.572     269.920     308.171
  H      374.170     264.943     299.863
  H      372.739     264.662     300.825
  H      374.269     264.979     301.607

 3  4  5  6  7  8  9  10  11  12  22  25  29  30  31  32 0
 6-311+G(2d,p)
 ****
 33  36  37 0
 6-311+G(2d,p)
 ****
 1  2  13  14  15  16  17  18  19  20  21  23  24  26 0
 3-21G
 ****
 27  28  34  35  38  39  40  41  42  43  44  45  46  47  48 0
 3-21G
 ****


