%nproc=1
%NoSave
%Mem=1900MB
#P OB98/GEN NMR

erre ene a

0 1
  C     -222.075     107.289     -46.975
  O     -222.589     106.000     -47.238
  H     -221.310     107.241     -46.193
  H     -221.622     107.681     -47.890
  H     -222.882     107.960     -46.666
  P     -223.205     105.208     -45.987
  C     -221.214     103.585     -45.641
  O     -221.958     104.679     -45.125
  C     -221.123     102.473     -44.602
  O     -220.914     103.035     -43.290
  C     -222.374     101.613     -44.478
  O     -222.461     100.644     -45.515
  C     -222.135     100.964     -43.121
  O     -221.229      99.854     -43.269
  C     -221.459     102.092     -42.328
  N     -221.831     104.844     -38.009
  C     -220.770     104.281     -38.631
  N     -220.746     103.557     -39.766
  C     -221.980     103.442     -40.286
  C     -223.155     103.960     -39.765
  C     -223.053     104.688     -38.567
  N     -224.144     105.244     -37.932
  N     -224.225     103.655     -40.577
  C     -223.710     102.960     -41.572
  N     -222.355     102.801     -41.437
  O     -223.794     103.869     -46.643
  O     -224.250     105.945     -45.216
  H     -221.649      99.235     -43.898
  H     -224.610     103.618     -46.171
  H     -219.807     104.439     -38.149
  H     -224.273     102.563     -42.408
  H     -220.616     101.718     -41.736
  H     -223.049     100.581     -42.662
  H     -223.279     102.230     -44.429
  H     -220.247     101.855     -44.845
  H     -220.203     103.920     -45.897
  H     -223.986     105.909     -37.196
  H     -225.055     105.125     -38.364
  H     -221.708     103.219     -46.549
  P     -223.896     100.415     -46.196
  C     -224.522      98.014     -45.438
  O     -224.682      99.413     -45.223
  O     -223.552      99.504     -47.465
  O     -224.616     101.662     -46.586
  H     -224.234      99.622     -48.156
  H     -225.101      97.474     -44.719
  H     -223.490      97.753     -45.333
  H     -224.855      97.764     -46.424

 6  7  8  9  10  11  12  13  14  15  25  28  32  33  34  35 0
 6-311+G(2d,p)
 ****
 36  39  40 0
 6-311+G(2d,p)
 ****
 1  2  3  4  5  16  17  18  19  20  21  22  23  24 0
 3-21G
 ****
 26  27  29  30  31  37  38  41  42  43  44  45  46  47  48 0
 3-21G
 ****


