%nproc=1
%NoSave
%Mem=1900MB
#P OB98/GEN NMR

erre ene a

0 1
  C     -192.668     -16.850    -174.862
  O     -192.200     -15.593    -175.356
  P     -192.948     -15.029    -176.661
  C     -191.420     -16.139    -178.435
  O     -192.710     -16.084    -177.848
  C     -191.261     -17.395    -179.300
  O     -189.949     -17.414    -179.943
  C     -191.394     -18.707    -178.511
  O     -192.028     -19.650    -179.386
  C     -189.941     -19.084    -178.272
  O     -189.770     -20.437    -177.885
  C     -189.345     -18.686    -179.617
  N     -185.005     -21.036    -180.907
  C     -186.301     -21.395    -181.037
  N     -187.404     -20.712    -180.663
  C     -187.063     -19.537    -180.107
  C     -185.788     -19.035    -179.904
  C     -184.721     -19.842    -180.334
  N     -183.398     -19.495    -180.187
  N     -185.844     -17.798    -179.277
  C     -187.131     -17.606    -179.048
  N     -187.905     -18.585    -179.601
  O     -192.061     -13.766    -177.083
  O     -194.377     -14.668    -176.420
  H     -190.311     -21.016    -178.459
  H     -192.474     -12.940    -176.769
  H     -186.475     -22.364    -181.501
  H     -187.551     -16.781    -178.490
  H     -189.612     -19.392    -180.413
  H     -189.533     -18.458    -177.467
  H     -191.987     -18.611    -177.597
  H     -192.014     -17.360    -180.098
  H     -190.652     -16.143    -177.656
  H     -182.702     -20.143    -180.522
  H     -183.143     -18.619    -179.754
  H     -191.255     -15.230    -179.023
  P     -193.631     -19.725    -179.413
  C     -193.756     -21.563    -177.628
  O     -194.035     -20.212    -177.936
  O     -193.847     -21.073    -180.254
  O     -194.339     -18.536    -179.965
  H     -193.305     -21.799    -179.902
  H     -194.003     -21.741    -176.576
  H     -192.696     -21.778    -177.785
  H     -194.369     -22.222    -178.250
  H     -192.102     -17.126    -173.997
  H     -192.550     -17.597    -175.619
  H     -193.702     -16.768    -174.600

 3  4  5  6  7  8  9  10  11  12  22  25  29  30  31  32 0
 6-311+G(2d,p)
 ****
 33  36  37 0
 6-311+G(2d,p)
 ****
 1  2  13  14  15  16  17  18  19  20  21  23  24  26 0
 3-21G
 ****
 27  28  34  35  38  39  40  41  42  43  44  45  46  47  48 0
 3-21G
 ****


