%nproc=1
%NoSave
%Mem=1900MB
#P OB98/GEN NMR

erre ene a

0 1
  C      -30.189    -897.190     827.427
  O      -30.785    -897.090     826.140
  P      -29.944    -896.390     824.971
  C      -31.675    -895.070     823.520
  O      -30.917    -896.260     823.703
  C      -32.228    -895.020     822.105
  O      -31.148    -895.020     821.139
  C      -33.100    -896.230     821.726
  O      -34.405    -896.100     822.269
  C      -33.055    -896.170     820.210
  O      -34.043    -895.250     819.697
  C      -31.624    -895.670     819.936
  N      -30.734    -896.740     819.510
  C      -29.845    -896.400     818.488
  O      -29.829    -895.300     817.937
  N      -29.002    -897.410     818.073
  C      -29.000    -898.700     818.549
  O      -28.257    -899.580     818.093
  C      -29.978    -898.990     819.610
  C      -30.786    -898.020     820.032
  O      -28.891    -897.510     824.531
  O      -29.268    -895.120     825.370
  H      -33.765    -894.350     819.952
  H      -28.042    -897.100     824.288
  H      -28.342    -897.190     817.351
  H      -30.005    -900.000     819.999
  H      -31.528    -898.220     820.811
  H      -31.640    -894.880     819.160
  H      -33.286    -897.140     819.773
  H      -32.628    -897.150     822.083
  H      -32.803    -894.090     821.983
  H      -31.037    -894.200     823.715
  H      -32.487    -895.050     824.254
  P      -35.050    -897.410     822.947
  C      -37.156    -898.050     821.549
  O      -36.613    -897.320     822.624
  O      -34.913    -897.050     824.508
  O      -34.354    -898.670     822.548
  H      -35.000    -896.080     824.658
  H      -36.651    -899.020     821.399
  H      -37.055    -897.440     820.630
  H      -38.224    -898.220     821.732
  H      -30.866    -897.677     828.097
  H      -29.967    -896.210     827.794
  H      -29.285    -897.758     827.358

 3  4  5  6  7  8  9  10  11  12  13  23  28  29  30  31  32 0
 6-311+G(2d,p)
 ****
 33  34 0
 6-311+G(2d,p)
 ****
 1  2  14  15  16  17  18  19  20  21  22  24  25  26 0
 3-21G
 ****
 27  35  36  37  38  39  40  41  42  43  44  45 0
 3-21G
 ****


