%nproc=1
%NoSave
%Mem=1900MB
#P OB98/GEN NMR

erre ene a

0 1
  C      -23.266      59.446     207.488
  O      -22.344      58.678     206.705
  P      -20.950      59.267     206.174
  C      -19.634      57.049     206.164
  O      -20.157      58.121     205.385
  C      -20.323      55.721     205.833
  O      -21.725      55.782     206.158
  C      -20.263      55.318     204.366
  O      -18.982      54.822     204.022
  C      -21.387      54.288     204.300
  O      -20.937      53.001     204.755
  C      -22.423      54.883     205.275
  N      -23.519      55.553     204.587
  C      -24.673      54.796     204.368
  O      -24.714      53.609     204.695
  N      -25.747      55.398     203.757
  C      -25.647      56.620     203.336
  N      -26.745      57.167     202.746
  C      -24.418      57.423     203.467
  C      -23.404      56.832     204.098
  O      -20.141      59.953     207.227
  O      -21.351      60.303     205.019
  H      -21.702      52.398     204.677
  H      -20.690      61.020     204.991
  H      -24.367      58.428     203.078
  H      -22.467      57.355     204.245
  H      -22.841      54.096     205.915
  H      -21.774      54.154     203.285
  H      -20.522      56.177     203.735
  H      -19.867      54.943     206.462
  H      -27.575      56.592     202.678
  H      -19.793      57.286     207.222
  H      -26.774      58.108     202.387
  H      -18.557      56.973     205.981
  P      -17.955      55.757     203.228
  C      -15.885      54.569     204.175
  O      -16.607      54.920     203.009
  O      -17.767      57.130     203.784
  O      -18.569      55.822     201.748
  H      -18.353      56.687     201.353
  H      -15.257      53.703     203.953
  H      -16.563      54.317     204.997
  H      -15.247      55.405     204.473
  H      -24.120      58.846     207.724
  H      -23.577      60.305     206.932
  H      -22.790      59.760     208.393

 3  4  5  6  7  8  9  10  11  12  13  23  27  28  29  30  32 0
 6-311+G(2d,p)
 ****
 34  35 0
 6-311+G(2d,p)
 ****
 1  2  14  15  16  17  18  19  20  21  22  24  25  26 0
 3-21G
 ****
 31  33  36  37  38  39  40  41  42  43  44  45  46 0
 3-21G
 ****


