%nproc=1
%NoSave
%Mem=1900MB
#P OB98/GEN NMR

erre ene a

0 1
  C      389.774    -899.040    -743.362
  O      388.829    -897.990    -743.249
  H      389.239    -900.000    -743.339
  H      390.478    -899.010    -742.521
  H      390.318    -898.960    -744.308
  P      389.414    -896.500    -743.279
  C      388.113    -896.590    -745.536
  O      389.104    -895.930    -744.744
  C      387.079    -895.570    -746.038
  O      386.355    -895.030    -744.897
  C      387.691    -894.370    -746.779
  O      386.732    -893.890    -747.736
  C      387.834    -893.350    -745.647
  O      388.080    -892.060    -746.156
  C      386.512    -893.590    -744.927
  N      384.902    -889.710    -742.012
  C      384.707    -890.000    -743.314
  N      385.156    -891.060    -744.016
  C      385.871    -891.900    -743.228
  C      386.124    -891.750    -741.883
  C      385.614    -890.590    -741.259
  N      385.821    -890.300    -739.933
  N      386.886    -892.810    -741.415
  C      387.064    -893.580    -742.468
  N      386.478    -893.050    -743.586
  O      391.003    -896.730    -743.297
  O      388.983    -895.620    -742.161
  H      388.977    -892.010    -746.552
  H      391.349    -896.670    -742.389
  H      384.116    -889.270    -743.867
  H      387.623    -894.510    -742.466
  H      385.663    -893.180    -745.485
  H      388.686    -893.600    -744.999
  H      388.643    -894.600    -747.287
  H      386.338    -896.080    -746.660
  H      387.621    -897.340    -744.926
  H      388.597    -897.070    -746.398
  H      385.430    -889.440    -739.563
  H      386.367    -890.930    -739.365
  P      387.125    -893.850    -749.296
  C      384.974    -895.210    -749.870
  O      386.371    -895.050    -750.041
  O      388.644    -894.380    -749.260
  O      387.043    -892.510    -749.943
  H      389.124    -894.010    -750.028
  H      384.640    -896.055    -750.435
  H      384.470    -894.330    -750.211
  H      384.757    -895.366    -748.834

 6  7  8  9  10  11  12  13  14  15  25  28  32  33  34  35 0
 6-311+G(2d,p)
 ****
 36  37  40 0
 6-311+G(2d,p)
 ****
 1  2  3  4  5  16  17  18  19  20  21  22  23  24 0
 3-21G
 ****
 26  27  29  30  31  38  39 41  42  43  44  45  46  47  48 0
 3-21G
 ****


