%nproc=1
%NoSave
%Mem=1900MB
#P OB98/GEN NMR

erre ene a

0 1
  C      -88.105    -253.900      -0.808
  O      -88.184    -253.202       0.415
  H      -87.447    -253.348      -1.484
  H      -89.098    -253.967      -1.262
  H      -87.697    -254.904      -0.666
  P      -88.815    -253.940       1.687
  C      -91.087    -252.783       1.282
  O      -90.400    -254.014       1.453
  C      -92.507    -252.868       1.852
  O      -93.274    -253.819       1.068
  C      -92.502    -253.383       3.297
  O      -93.616    -252.900       4.042
  C      -92.642    -254.886       3.117
  O      -93.168    -255.542       4.271
  C      -93.554    -254.961       1.894
  N      -94.841    -259.862       1.331
  C      -95.099    -259.006       2.384
  N      -95.796    -259.526       3.423
  N      -94.692    -257.765       2.426
  C      -93.949    -257.402       1.354
  C      -93.607    -258.165       0.261
  C      -94.092    -259.529       0.209
  O      -93.874    -260.335      -0.689
  N      -92.832    -257.455      -0.622
  C      -92.701    -256.269      -0.065
  N      -93.382    -256.179       1.125
  O      -88.690    -252.851       2.855
  O      -88.165    -255.235       2.071
  H      -93.357    -256.466       4.020
  H      -88.713    -253.286       3.727
  H      -95.203    -260.798       1.335
  H      -92.141    -255.442      -0.482
  H      -94.608    -254.907       2.194
  H      -91.648    -255.303       2.934
  H      -95.951    -260.519       3.514
  H      -91.587    -253.136       3.829
  H      -95.720    -259.027       4.314
  H      -93.009    -251.901       1.756
  H      -91.115    -252.580       0.208
  H      -90.531    -251.971       1.750
  P      -93.424    -251.593       4.947
  C      -91.508    -252.740       6.366
  O      -91.991    -251.627       5.651
  O      -94.449    -251.812       6.153
  O      -93.673    -250.303       4.227
  H      -95.147    -251.132       6.135
  H      -90.530    -252.525       6.743
  H      -91.461    -253.588       5.716
  H      -92.166    -252.952       7.182

 6  7  8  9  10  11  12  13  14  15  26  29  33  34 0
 6-311+G(2d,p)
 ****
 36  38  39  40  41 0
 6-311+G(2d,p)
 ****
 1  2  3  4  5  16  17  18  19  20  21  22  23  24  25 0
 3-21G
 ****
 27  28  30  31  32  35  37  42  43  44  45  46  47 0
 3-21G
 ****
 48  49 0
 3-21G
 ****


