%nproc=1
%NoSave
%Mem=1900MB
#P OB98/GEN NMR

erre ene a

0 1
  C      374.907    -959.095     329.722
  O      374.250    -959.149     330.970
  H      374.155    -959.061     328.928
  H      375.523    -959.985     329.582
  H      375.525    -958.197     329.655
  P      375.182    -959.160     332.276
  C      375.256    -956.618     332.825
  O      375.943    -957.748     332.296
  C      376.254    -955.511     333.152
  O      377.107    -955.945     334.241
  C      377.200    -955.163     332.011
  O      376.583    -954.316     331.054
  C      378.342    -954.489     332.764
  O      378.060    -953.111     333.031
  C      378.381    -955.282     334.078
  N      383.282    -956.012     335.276
  C      382.466    -954.946     335.427
  N      381.160    -954.841     335.100
  C      380.711    -955.988     334.566
  C      381.429    -957.156     334.339
  C      382.778    -957.141     334.724
  N      383.624    -958.211     334.529
  N      380.633    -958.103     333.730
  C      379.451    -957.529     333.604
  N      379.454    -956.256     334.098
  O      376.331    -960.205     331.885
  O      374.493    -959.533     333.547
  H      377.280    -953.092     333.619
  H      376.099    -961.088     332.227
  H      382.919    -954.069     335.872
  H      378.580    -957.989     333.150
  H      378.519    -954.628     334.949
  H      379.272    -954.528     332.192
  H      377.574    -956.075     331.535
  H      375.699    -954.628     333.485
  H      374.729    -956.911     333.737
  H      374.525    -956.271     332.086
  H      384.586    -958.124     334.806
  H      383.283    -959.019     334.023
  P      377.187    -954.270     329.573
  C      375.547    -955.703     328.138
  O      376.783    -955.647     328.838
  O      378.761    -954.420     329.809
  O      376.854    -953.040     328.799
  H      379.200    -953.546     329.756
  H      375.424    -956.675     327.708
  H      375.543    -954.967     327.362
  H      374.743    -955.509     328.817

 6  7  8  9  10  11  12  13  14  15  25  28  32  33  34  35 0
 6-311+G(2d,p)
 ****
 36  37  40 0
 6-311+G(2d,p)
 ****
 1  2  3  4  5  16  17  18  19  20  21  22  23  24 0
 3-21G
 ****
 26  27  29  30  31  38  39 41  42  43  44  45  46  47  48 0
 3-21G
 ****


