%nproc=1
%NoSave
%Mem=1900MB
#P OB98/GEN NMR

erre ene a

0 1
  C       48.455     151.936    -186.197
  O       48.716     153.041    -185.328
  P       49.128     154.425    -186.023
  C       47.952     156.256    -184.605
  O       49.159     155.563    -184.896
  C       47.562     156.045    -183.143
  O       47.193     154.673    -182.882
  C       48.691     156.349    -182.166
  O       48.880     157.747    -182.023
  C       48.183     155.645    -180.913
  O       47.195     156.452    -180.250
  C       47.517     154.387    -181.498
  N       47.902     149.610    -179.711
  C       46.927     150.540    -179.600
  N       46.903     151.793    -180.104
  C       48.025     152.048    -180.795
  C       49.101     151.201    -180.995
  C       49.016     149.926    -180.414
  N       50.015     148.983    -180.511
  N       50.074     151.818    -181.756
  C       49.602     153.027    -181.988
  N       48.363     153.209    -181.437
  O       47.843     154.792    -186.902
  O       50.360     154.331    -186.862
  H       46.348     156.323    -180.723
  H       48.039     154.673    -187.849
  H       46.053     150.239    -179.031
  H       50.118     153.799    -182.544
  H       46.580     154.138    -180.989
  H       48.975     155.434    -180.188
  H       49.623     155.881    -182.508
  H       46.698     156.686    -182.924
  H       47.147     155.904    -185.257
  H       49.907     148.122    -179.999
  H       50.883     149.236    -180.959
  H       48.093     157.321    -184.828
  P       50.119     158.416    -182.790
  C       48.695     160.538    -182.529
  O       49.993     159.974    -182.424
  O       49.629     158.366    -184.306
  O       51.444     157.790    -182.509
  H       48.703     158.660    -184.395
  H       48.744     161.586    -182.223
  H       48.000     160.007    -181.876
  H       48.350     160.487    -183.566
  H       48.192     151.078    -185.614
  H       49.330     151.721    -186.773
  H       47.647     152.182    -186.854

 3  4  5  6  7  8  9  10  11  12  22  25  29  30  31  32 0
 6-311+G(2d,p)
 ****
 33  36  37 0
 6-311+G(2d,p)
 ****
 1  2  13  14  15  16  17  18  19  20  21  23  24  26 0
 3-21G
 ****
 27  28  34  35  38  39  40  41  42  43  44  45  46  47  48 0
 3-21G
 ****


