%nproc=1
%NoSave
%Mem=1900MB
#P OB98/GEN NMR

erre ene a

0 1
  C     -876.557    -297.240     286.559
  O     -877.934    -297.340     286.888
  H     -876.198    -298.214     286.230
  H     -875.989    -296.935     287.445
  H     -876.394    -296.516     285.754
  P     -878.783    -296.002     287.120
  C     -880.616    -296.015     285.307
  O     -880.278    -296.327     286.649
  C     -882.052    -296.428     284.988
  O     -882.107    -297.875     284.802
  C     -883.058    -296.080     286.104
  O     -884.325    -295.832     285.471
  C     -883.114    -297.379     286.889
  O     -884.262    -297.436     287.722
  C     -883.047    -298.397     285.749
  N     -882.670    -299.736     286.224
  C     -883.711    -300.611     286.523
  O     -884.905    -300.292     286.431
  N     -883.348    -301.856     286.971
  C     -882.077    -302.275     287.195
  O     -881.814    -303.382     287.625
  C     -881.012    -301.296     286.906
  C     -881.354    -300.087     286.433
  O     -878.191    -294.761     286.535
  O     -878.920    -295.900     288.712
  H     -884.252    -296.694     288.345
  H     -878.980    -294.967     288.982
  H     -884.097    -302.498     287.183
  H     -879.996    -301.596     287.080
  H     -880.588    -299.344     286.214
  H     -884.021    -298.474     285.247
  H     -882.231    -297.469     287.533
  H     -882.756    -295.216     286.706
  H     -882.356    -295.979     284.031
  H     -879.919    -296.550     284.647
  H     -880.489    -294.941     285.134
  P     -885.390    -294.795     286.084
  C     -884.793    -292.485     285.125
  O     -885.639    -293.615     285.024
  O     -885.057    -294.310     287.473
  O     -886.772    -295.602     286.098
  H     -887.357    -295.258     286.806
  H     -885.056    -291.774     284.370
  H     -883.776    -292.788     284.991
  H     -884.908    -292.039     286.091

 6  7  8  9  10  11  12  13  14  15  16  26  31  32  33  34  35 0
 6-311+G(2d,p)
 ****
 36  37 0
 6-311+G(2d,p)
 ****
 1  2  3  4  5  17  18  19  20  21  22  23  24  25 0
 3-21G
 ****
 27  28  29  30  38  39  40  41  42  43  44  45 0
 3-21G
 ****


