%nproc=1
%NoSave
%Mem=1900MB
#P OB98/GEN NMR

erre ene a

0 1
  C      117.013    -788.365     115.283
  O      117.693    -787.510     114.385
  H      117.687    -789.181     115.566
  H      116.129    -788.793     114.801
  H      116.720    -787.829     116.189
  P      116.995    -786.130     113.957
  C      118.293    -784.319     115.270
  O      118.134    -785.000     114.030
  C      119.647    -783.592     115.324
  O      120.691    -784.592     115.582
  C      120.025    -782.871     114.014
  O      120.845    -781.753     114.382
  C      120.857    -783.948     113.326
  O      121.561    -783.451     112.209
  C      121.660    -784.457     114.522
  N      122.368    -785.712     114.311
  C      123.496    -785.966     115.092
  O      123.937    -785.193     115.954
  N      124.131    -787.149     114.848
  C      123.755    -788.101     113.939
  O      124.356    -789.160     113.790
  C      122.571    -787.770     113.139
  C      121.937    -786.622     113.361
  O      115.730    -785.796     114.666
  O      116.771    -786.296     112.381
  H      115.831    -786.516     112.205
  H      121.978    -784.207     111.740
  H      124.949    -787.354     115.412
  H      122.251    -788.499     112.403
  H      121.042    -786.357     112.800
  H      122.381    -783.698     114.841
  H      120.193    -784.728     112.932
  H      119.162    -782.526     113.447
  H      119.647    -782.907     116.171
  H      118.234    -785.056     116.078
  H      117.479    -783.593     115.387
  P      120.482    -780.230     114.002
  C      118.978    -779.633     116.026
  O      120.228    -779.414     115.360
  O      119.377    -780.101     113.004
  O      121.847    -779.609     113.430
  H      121.634    -778.875     112.826
  H      118.936    -779.033     116.911
  H      118.891    -780.666     116.291
  H      118.174    -779.363     115.373

 6  7  8  9  10  11  12  13  14  15  16  27  31  32  33  34  35 0
 6-311+G(2d,p)
 ****
 36  37 0
 6-311+G(2d,p)
 ****
 1  2  3  4  5  17  18  19  20  21  22  23  24  25 0
 3-21G
 ****
 26  28  29  30  38  39  40  41  42  43  44  45 0
 3-21G
 ****


