%nproc=1
%NoSave
%Mem=1900MB
#P OB98/GEN NMR

erre ene a

0 1
  C      -65.687     794.189     -29.024
  O      -64.576     794.263     -28.156
  H      -66.553     793.833     -28.462
  H      -65.484     793.491     -29.837
  H      -65.918     795.179     -29.438
  P      -63.250     794.957     -28.734
  C      -62.311     794.712     -26.328
  O      -62.063     794.589     -27.720
  C      -61.153     794.112     -25.530
  O      -59.902     794.702     -25.941
  C      -61.256     794.326     -24.023
  O      -62.106     793.367     -23.406
  C      -59.805     794.122     -23.616
  O      -59.498     792.713     -23.603
  C      -59.054     794.817     -24.765
  N      -56.042     798.073     -22.318
  C      -56.043     796.691     -22.310
  N      -55.114     796.089     -21.537
  N      -56.885     795.963     -22.997
  C      -57.766     796.701     -23.722
  C      -57.857     798.072     -23.804
  C      -56.918     798.867     -23.049
  O      -56.858     800.086     -23.035
  N      -58.869     798.449     -24.647
  C      -59.398     797.312     -25.051
  N      -58.768     796.221     -24.512
  O      -63.500     796.517     -28.453
  O      -62.968     794.707     -30.176
  H      -59.890     792.343     -22.789
  H      -63.117     797.034     -29.190
  H      -55.380     798.586     -21.757
  H      -60.237     797.226     -25.735
  H      -58.101     794.333     -24.994
  H      -59.590     794.508     -22.621
  H      -54.472     796.588     -20.943
  H      -61.557     795.355     -23.781
  H      -55.075     795.077     -21.544
  H      -61.106     793.041     -25.768
  H      -63.236     794.180     -26.077
  H      -62.428     795.775     -26.080
  P      -62.886     793.809     -22.080
  C      -64.767     792.115     -22.651
  O      -63.823     792.564     -21.693
  O      -63.926     794.901     -22.619
  O      -62.023     794.350     -20.986
  H      -64.197     795.496     -21.890
  H      -65.313     791.286     -22.252
  H      -64.256     791.811     -23.540
  H      -65.445     792.910     -22.884

 6  7  8  9  10  11  12  13  14  15  26  29  33  34 0
 6-311+G(2d,p)
 ****
 36  38  39  40  41 0
 6-311+G(2d,p)
 ****
 1  2  3  4  5  16  17  18  19  20  21  22  23  24  25 0
 3-21G
 ****
 27  28  30  31  32  35  37  42  43  44  45  46  47 0
 3-21G
 ****
 48  49 0
 3-21G
 ****


