%nproc=1
%NoSave
%Mem=1900MB
#P OB98/GEN NMR

erre ene a

0 1
  C     -324.122    -259.787    -429.780
  O     -325.079    -258.923    -429.201
  H     -323.124    -259.445    -429.494
  H     -324.208    -259.771    -430.868
  H     -324.267    -260.806    -429.409
  P     -326.621    -259.215    -429.542
  C     -327.438    -258.490    -427.185
  O     -327.491    -258.263    -428.589
  C     -328.636    -257.820    -426.513
  O     -328.516    -256.387    -426.619
  C     -329.977    -258.164    -427.144
  O     -330.446    -259.442    -426.743
  C     -330.841    -257.030    -426.625
  O     -331.339    -257.307    -425.304
  C     -329.851    -255.842    -426.605
  N     -330.082    -254.919    -427.711
  C     -330.844    -253.790    -427.412
  O     -331.299    -253.567    -426.286
  N     -331.088    -252.942    -428.452
  C     -330.698    -253.123    -429.744
  O     -331.015    -252.361    -430.649
  C     -329.889    -254.327    -430.004
  C     -329.627    -255.158    -428.993
  O     -326.853    -260.682    -428.939
  O     -326.973    -259.141    -430.991
  H     -326.855    -261.337    -429.656
  H     -331.810    -256.504    -425.012
  H     -331.646    -252.127    -428.256
  H     -329.556    -254.497    -431.020
  H     -329.052    -256.063    -429.165
  H     -329.950    -255.279    -425.668
  H     -331.711    -256.858    -427.259
  H     -329.915    -258.089    -428.235
  H     -328.630    -258.087    -425.448
  H     -326.517    -258.063    -426.783
  H     -327.440    -259.571    -426.998
  P     -331.135    -260.379    -427.846
  C     -329.753    -262.473    -427.040
  O     -331.020    -261.890    -427.294
  O     -330.064    -260.318    -429.028
  O     -332.519    -259.961    -428.224
  H     -329.148    -260.272    -428.708
  H     -329.886    -263.473    -426.682
  H     -329.236    -261.895    -426.302
  H     -329.181    -262.491    -427.944

 6  7  8  9  10  11  12  13  14  15  16  27  31  32  33  34  35 0
 6-311+G(2d,p)
 ****
 36  37 0
 6-311+G(2d,p)
 ****
 1  2  3  4  5  17  18  19  20  21  22  23  24  25 0
 3-21G
 ****
 26  28  29  30  38  39  40  41  42  43  44  45 0
 3-21G
 ****


