%nproc=1
%NoSave
%Mem=1900MB
#P OB98/GEN NMR

erre ene a

0 1
  C     -289.248      15.992      61.783
  O     -290.134      17.058      62.080
  H     -289.199      15.872      60.697
  H     -289.625      15.064      62.226
  H     -288.248      16.211      62.166
  P     -290.315      17.421      63.635
  C     -292.917      17.283      63.811
  O     -291.662      16.679      64.106
  C     -294.056      16.292      64.089
  O     -294.028      15.255      63.062
  C     -293.937      15.581      65.447
  O     -295.260      15.271      65.916
  C     -293.231      14.291      65.062
  O     -293.356      13.331      66.085
  C     -293.943      13.987      63.743
  N     -293.474       9.010      62.733
  C     -294.316       9.693      63.545
  N     -294.386      11.023      63.751
  C     -293.477      11.667      62.992
  C     -292.550      11.107      62.131
  C     -292.562       9.708      62.014
  N     -291.693       9.003      61.209
  N     -291.767      12.091      61.555
  C     -292.219      13.230      62.062
  N     -293.250      13.016      62.936
  O     -290.725      18.971      63.598
  O     -289.126      17.176      64.502
  H     -294.289      13.064      66.208
  H     -289.926      19.529      63.691
  H     -295.034       9.083      64.096
  H     -291.835      14.215      61.843
  H     -294.969      13.620      63.903
  H     -292.159      14.458      64.898
  H     -293.408      16.172      66.201
  H     -295.013      16.815      63.992
  H     -292.921      17.574      62.756
  H     -293.045      18.175      64.439
  H     -291.752       7.998      61.206
  H     -290.984       9.510      60.688
  P     -295.970      16.272      66.966
  C     -296.409      14.551      68.885
  O     -295.761      15.744      68.467
  O     -297.527      15.958      66.716
  O     -295.694      17.724      66.755
  H     -298.026      16.798      66.652
  H     -296.161      14.349      69.906
  H     -296.086      13.736      68.272
  H     -297.468      14.669      68.792

 6  7  8  9  10  11  12  13  14  15  25  28  32  33  34  35 0
 6-311+G(2d,p)
 ****
 36  37  40 0
 6-311+G(2d,p)
 ****
 1  2  3  4  5  16  17  18  19  20  21  22  23  24 0
 3-21G
 ****
 26  27  29  30  31  38  39 41  42  43  44  45  46  47  48 0
 3-21G
 ****


