%nproc=1
%NoSave
%Mem=1900MB
#P OB98/GEN NMR

erre ene a

0 1
  C      -50.441     251.236     257.519
  O      -50.910     250.132     258.303
  P      -51.355     248.781     257.566
  C      -49.620     247.923     255.859
  O      -50.040     247.921     257.218
  C      -48.302     247.152     255.696
  O      -47.224     247.825     256.413
  C      -48.384     245.721     256.248
  O      -47.555     244.837     255.474
  C      -47.760     245.854     257.625
  O      -47.304     244.593     258.122
  C      -46.661     246.875     257.341
  N      -44.157     246.330     261.784
  C      -44.382     245.469     260.763
  N      -45.035     245.692     259.605
  C      -45.474     246.961     259.538
  C      -45.310     247.955     260.496
  C      -44.624     247.599     261.669
  N      -44.423     248.469     262.717
  N      -45.900     249.134     260.081
  C      -46.450     248.841     258.917
  N      -46.191     247.553     258.534
  O      -52.320     248.950     256.434
  O      -52.016     247.928     258.757
  H      -47.153     244.692     259.080
  H      -52.828     247.495     258.426
  H      -43.983     244.464     260.904
  H      -47.052     249.519     258.325
  H      -45.793     246.414     256.858
  H      -48.504     246.254     258.332
  H      -49.397     245.306     256.291
  H      -48.025     247.144     254.633
  H      -49.499     248.951     255.512
  H      -44.021     248.094     263.566
  H      -44.889     249.364     262.704
  H      -50.415     247.493     255.236
  P      -48.326     243.690     254.639
  C      -48.495     245.284     252.568
  O      -48.085     244.041     253.091
  O      -49.749     243.507     255.061
  O      -47.406     242.408     254.909
  H      -46.455     242.549     254.747
  H      -48.122     245.373     251.541
  H      -48.082     246.113     253.158
  H      -49.587     245.346     252.561
  H      -50.188     252.050     258.165
  H      -51.209     251.544     256.841
  H      -49.575     250.938     256.965

 3  4  5  6  7  8  9  10  11  12  22  25  29  30  31  32 0
 6-311+G(2d,p)
 ****
 33  36  37 0
 6-311+G(2d,p)
 ****
 1  2  13  14  15  16  17  18  19  20  21  23  24  26 0
 3-21G
 ****
 27  28  34  35  38  39  40  41  42  43  44  45  46  47  48 0
 3-21G
 ****


