%nproc=1
%NoSave
%Mem=1900MB
#P OB98/GEN NMR

erre ene a

0 1
  C      221.284    -340.577     -67.673
  O      219.995    -340.985     -68.088
  H      222.025    -341.334     -67.945
  H      221.537    -339.641     -68.178
  H      221.299    -340.412     -66.592
  P      219.424    -342.344     -67.450
  C      219.922    -344.873     -67.801
  O      220.253    -343.531     -68.145
  C      220.056    -345.763     -69.030
  O      218.974    -345.508     -69.955
  C      221.341    -345.547     -69.828
  O      222.446    -346.224     -69.258
  C      220.944    -346.155     -71.160
  O      221.000    -347.590     -71.075
  C      219.493    -345.684     -71.301
  N      219.442    -343.537     -75.946
  C      219.626    -344.813     -75.545
  N      219.629    -345.302     -74.289
  C      219.414    -344.320     -73.395
  C      219.221    -342.974     -73.653
  C      219.232    -342.586     -75.006
  N      219.059    -341.283     -75.419
  N      219.070    -342.266     -72.476
  C      219.138    -343.179     -71.530
  N      219.357    -344.437     -72.030
  O      217.970    -342.485     -68.108
  O      219.387    -342.396     -65.961
  H      221.941    -347.826     -70.952
  H      217.414    -343.076     -67.565
  H      219.793    -345.535     -76.340
  H      219.035    -342.983     -70.469
  H      218.857    -346.427     -71.802
  H      221.605    -345.858     -71.979
  H      221.552    -344.478     -69.970
  H      219.974    -346.809     -68.703
  H      218.892    -344.904     -67.441
  H      219.270    -341.082     -76.385
  H      219.055    -340.554     -74.720
  H      220.593    -345.215     -67.004
  P      223.832    -345.418     -69.155
  C      225.561    -344.615     -70.926
  O      224.503    -345.517     -70.607
  O      224.741    -346.378     -68.256
  O      223.714    -344.045     -68.584
  H      225.422    -345.863     -67.780
  H      225.902    -344.804     -71.922
  H      226.369    -344.756     -70.239
  H      225.205    -343.608     -70.856

 6  7  8  9  10  11  12  13  14  15  25  28  32  33  34  35 0
 6-311+G(2d,p)
 ****
 36  39  40 0
 6-311+G(2d,p)
 ****
 1  2  3  4  5  16  17  18  19  20  21  22  23  24 0
 3-21G
 ****
 26  27  29  30  31  37  38  41  42  43  44  45  46  47 0
 3-21G
 ****
 48 0
 3-21G
 ****


