%nproc=1
%NoSave
%Mem=1900MB
#P OB98/GEN NMR

erre ene a

0 1
  C       -7.534      11.988       1.774
  O       -7.717      10.654       1.330
  P       -7.696       9.486       2.434
  C       -9.348       8.804       4.329
  O       -8.849       9.835       3.494
  C       -9.369       9.259       5.790
  O       -8.029       9.129       6.332
  C       -9.805      10.712       6.004
  O      -10.480      10.764       7.267
  C       -8.486      11.455       6.102
  O       -8.608      12.708       6.767
  C       -7.635      10.424       6.834
  N       -3.637      13.300       7.982
  C       -4.967      13.454       8.329
  N       -5.256      14.490       9.145
  N       -5.923      12.665       7.915
  C       -5.478      11.665       7.118
  C       -4.199      11.431       6.673
  C       -3.146      12.287       7.168
  O       -1.945      12.136       6.957
  N       -4.154      10.373       5.805
  C       -5.391       9.919       5.789
  N       -6.220      10.641       6.604
  O       -6.345       9.777       3.234
  O       -7.760       8.090       1.900
  H       -9.013      12.544       7.642
  H       -5.603       9.253       2.875
  H       -2.942      13.929       8.347
  H       -5.740       9.076       5.215
  H       -7.801      10.437       7.919
  H       -8.095      11.646       5.095
  H       -4.566      15.118       9.527
  H      -10.451      11.097       5.210
  H       -6.218      14.606       9.441
  H      -10.016       8.577       6.354
  H       -8.692       7.932       4.245
  H      -10.351       8.515       3.998
  P      -11.628      11.866       7.459
  C      -13.700      12.633       6.108
  O      -12.482      11.916       6.107
  O      -10.807      13.243       7.425
  O      -12.408      11.745       8.727
  H      -11.245      13.899       7.999
  H      -13.945      12.910       5.081
  H      -13.631      13.543       6.712
  H      -14.496      11.997       6.502
  H       -7.572      12.651       0.935
  H       -6.583      12.076       2.256
  H       -8.309      12.243       2.466

 3  4  5  6  7  8  9  10  11  12  23  26  30  31 0
 6-311+G(2d,p)
 ****
 33  35  36  37  38 0
 6-311+G(2d,p)
 ****
 1  2  13  14  15  16  17  18  19  20  21  22  24  25 0
 3-21G
 ****
 27  28  29  32  34  39  40  41  42  43  44  45  46  47  48  49 0
 3-21G
 ****


