%nproc=1
%NoSave
%Mem=1900MB
#P OB98/GEN NMR

erre ene a

0 1
  C     -188.977    -741.078     855.261
  O     -190.343    -741.335     855.416
  P     -190.917    -742.664     856.079
  C     -190.695    -744.263     854.041
  O     -191.584    -743.583     854.916
  C     -191.411    -745.046     852.922
  O     -192.230    -746.088     853.518
  C     -192.384    -744.107     852.189
  O     -191.922    -743.272     851.156
  C     -193.560    -744.993     851.818
  O     -193.505    -745.467     850.463
  C     -193.453    -746.162     852.801
  N     -198.344    -745.134     853.714
  C     -197.684    -745.190     852.520
  N     -198.396    -744.743     851.443
  N     -196.459    -745.645     852.365
  C     -195.850    -745.958     853.552
  C     -196.434    -745.969     854.812
  C     -197.793    -745.502     854.955
  O     -198.389    -745.367     856.015
  N     -195.504    -746.277     855.794
  C     -194.389    -746.444     855.117
  N     -194.543    -746.228     853.772
  O     -191.672    -742.503     857.376
  O     -189.563    -743.471     856.409
  H     -194.248    -746.079     850.333
  H     -189.701    -743.971     857.239
  H     -199.266    -744.705     853.779
  H     -193.438    -746.675     855.563
  H     -193.460    -747.112     852.256
  H     -194.520    -744.429     851.897
  H     -199.261    -744.264     851.535
  H     -192.772    -743.405     852.937
  H     -197.865    -744.599     850.582
  H     -190.702    -745.554     852.271
  H     -190.083    -744.938     854.649
  H     -189.992    -743.540     853.586
  P     -192.097    -741.681     851.048
  C     -194.613    -741.788     850.578
  O     -193.360    -741.385     850.090
  O     -190.875    -741.201     850.160
  O     -192.125    -740.971     852.363
  H     -190.697    -740.237     850.341
  H     -195.339    -741.823     849.773
  H     -194.980    -741.075     851.327
  H     -194.545    -742.776     851.045
  H     -188.844    -740.126     854.792
  H     -188.538    -741.840     854.652
  H     -188.504    -741.072     856.221

 3  4  5  6  7  8  9  10  11  12  23  26  30  31 0
 6-311+G(2d,p)
 ****
 33  35  36  37  38 0
 6-311+G(2d,p)
 ****
 1  2  13  14  15  16  17  18  19  20  21  22  24  25 0
 3-21G
 ****
 27  28  29  32  34  39  40  41  42  43  44  45  46  47  48  49 0
 3-21G
 ****


