%nproc=1
%NoSave
%Mem=1900MB
#P OB98/GEN NMR

erre ene a

0 1
  C     -132.474     362.891     393.551
  O     -132.268     361.492     393.607
  H     -132.918     363.214     394.494
  H     -133.163     363.136     392.737
  H     -131.528     363.416     393.410
  P     -131.468     360.784     392.411
  C     -129.058     360.770     393.330
  O     -129.979     361.373     392.430
  C     -127.716     360.551     392.638
  O     -127.764     359.353     391.827
  C     -127.329     361.676     391.679
  O     -126.878     362.820     392.376
  C     -126.273     360.978     390.835
  O     -124.999     360.976     391.491
  C     -126.837     359.538     390.738
  N     -127.485     359.290     389.443
  C     -126.645     358.967     388.385
  O     -125.419     358.874     388.488
  N     -127.248     358.810     387.167
  C     -128.564     359.084     386.892
  O     -129.002     359.171     385.751
  C     -129.415     359.360     388.057
  C     -128.840     359.461     389.263
  O     -132.145     360.800     391.079
  O     -131.261     359.283     392.938
  H     -131.908     358.694     392.503
  H     -125.142     360.529     392.352
  H     -126.644     358.620     386.385
  H     -130.471     359.509     387.893
  H     -129.445     359.707     390.135
  H     -126.034     358.803     390.868
  H     -126.155     361.464     389.866
  H     -128.188     361.929     391.043
  H     -126.943     360.410     393.408
  H     -129.465     359.800     393.649
  H     -128.943     361.413     394.208
  P     -126.961     364.268     391.686
  C     -129.508     364.200     392.036
  O     -128.450     364.470     391.123
  O     -125.874     364.569     390.711
  O     -126.906     365.290     392.924
  H     -126.224     365.962     392.743
  H     -130.448     364.368     391.553
  H     -129.422     364.848     392.883
  H     -129.450     363.181     392.358

 6  7  8  9  10  11  12  13  14  15  16  27  31  32  33  34  35 0
 6-311+G(2d,p)
 ****
 36  37 0
 6-311+G(2d,p)
 ****
 1  2  3  4  5  17  18  19  20  21  22  23  24  25 0
 3-21G
 ****
 26  28  29  30  38  39  40  41  42  43  44  45 0
 3-21G
 ****


