%nproc=1
%NoSave
%Mem=1900MB
#P OB98/GEN NMR

erre ene a

0 1
  C      254.656      19.159    -119.522
  O      253.826      20.228    -119.052
  P      252.324      20.009    -118.514
  C      251.423      19.526    -120.881
  O      251.526      19.068    -119.542
  C      250.035      19.246    -121.480
  O      249.914      17.830    -121.826
  C      248.858      19.592    -120.544
  O      247.824      20.139    -121.369
  C      248.470      18.219    -120.002
  O      247.168      18.172    -119.448
  C      248.655      17.377    -121.274
  N      248.671      15.929    -121.075
  C      247.782      15.157    -121.839
  O      246.980      15.676    -122.614
  N      247.811      13.785    -121.690
  C      248.640      13.235    -120.855
  N      248.623      11.878    -120.772
  C      249.575      14.011    -120.014
  C      249.539      15.335    -120.178
  O      251.609      21.284    -118.202
  O      252.468      19.107    -117.197
  H      251.790      19.379    -116.546
  H      246.582      18.709    -120.008
  H      250.252      13.514    -119.339
  H      250.211      15.975    -119.617
  H      247.874      17.639    -121.998
  H      249.183      17.939    -119.218
  H      249.112      20.320    -119.767
  H      249.947      19.803    -122.423
  H      247.968      11.378    -121.371
  H      252.175      19.005    -121.489
  H      249.228      11.344    -120.160
  H      251.640      20.604    -120.914
  P      247.111      21.514    -120.945
  C      245.734      20.298    -119.087
  O      246.618      21.356    -119.428
  O      245.721      21.429    -121.750
  O      247.839      22.775    -121.298
  H      245.385      22.333    -121.907
  H      246.080      19.836    -118.155
  H      245.686      19.528    -119.866
  H      244.730      20.712    -118.924
  H      255.605      19.551    -119.825
  H      254.185      18.681    -120.355
  H      254.799      18.447    -118.737

 3  4  5  6  7  8  9  10  11  12  13  24  27  28  29  30  32 0
 6-311+G(2d,p)
 ****
 34  35 0
 6-311+G(2d,p)
 ****
 1  2  14  15  16  17  18  19  20  21  22  23  25  26 0
 3-21G
 ****
 31  33  36  37  38  39  40  41  42  43  44  45  46 0
 3-21G
 ****


