%nproc=1
%NoSave
%Mem=1900MB
#P OB98/GEN NMR

erre ene a

0 1
  C       21.676      83.206     -24.837
  O       21.391      84.588     -24.762
  H       22.363      83.036     -25.669
  H       20.760      82.636     -25.013
  H       22.152      82.872     -23.911
  P       20.349      85.046     -23.632
  C       18.473      83.848     -24.933
  O       19.177      83.948     -23.701
  C       17.197      83.025     -24.752
  O       17.568      81.635     -24.556
  C       16.358      83.453     -23.544
  O       14.973      83.308     -23.862
  C       16.736      82.435     -22.482
  O       15.738      82.305     -21.475
  C       16.956      81.187     -23.335
  N       17.008      77.601     -19.723
  C       15.999      78.280     -20.308
  N       16.074      79.207     -21.286
  C       17.348      79.365     -21.693
  C       18.478      78.745     -21.193
  C       18.274      77.827     -20.148
  N       19.297      77.156     -19.520
  N       19.606      79.208     -21.840
  C       19.163      80.084     -22.724
  N       17.805      80.225     -22.655
  O       19.895      86.464     -23.709
  O       21.118      84.643     -22.289
  H       15.532      83.197     -21.126
  H       21.493      83.744     -22.347
  H       15.002      78.058     -19.938
  H       19.780      80.647     -23.416
  H       16.017      80.675     -23.583
  H       17.668      82.738     -21.992
  H       16.559      84.475     -23.222
  H       16.613      83.071     -25.678
  H       19.107      83.377     -25.692
  H       19.060      76.514     -18.781
  H       20.247      77.304     -19.824
  H       18.229      84.863     -25.265
  P       13.995      84.564     -23.675
  C       12.760      83.417     -21.726
  O       13.455      84.576     -22.162
  O       12.943      84.725     -24.719
  O       15.009      85.806     -23.686
  H       14.619      86.531     -24.211
  H       12.453      83.546     -20.709
  H       13.405      82.566     -21.799
  H       11.898      83.265     -22.342

 6  7  8  9  10  11  12  13  14  15  25  28  32  33  34  35 0
 6-311+G(2d,p)
 ****
 36  39  40 0
 6-311+G(2d,p)
 ****
 1  2  3  4  5  16  17  18  19  20  21  22  23  24 0
 3-21G
 ****
 26  27  29  30  31  37  38  41  42  43  44  45  46  47 0
 3-21G
 ****
 48 0
 3-21G
 ****


