%nproc=1
%NoSave
%Mem=1900MB
#P OB98/GEN NMR

erre ene a

0 1
  C     -274.107      90.466     -44.445
  O     -273.243      89.577     -45.165
  P     -273.068      89.675     -46.758
  C     -274.133      87.399     -47.286
  O     -272.967      88.205     -47.405
  C     -273.932      85.964     -47.800
  O     -273.214      85.963     -49.066
  C     -273.155      85.037     -46.855
  O     -273.673      83.725     -47.075
  C     -271.738      85.152     -47.391
  O     -270.889      84.086     -46.981
  C     -272.012      85.191     -48.892
  N     -267.466      84.277     -51.072
  C     -268.404      83.446     -50.568
  N     -269.602      83.758     -50.037
  C     -269.822      85.084     -50.098
  C     -268.966      86.054     -50.595
  C     -267.728      85.605     -51.093
  N     -266.750      86.452     -51.565
  N     -269.520      87.313     -50.464
  C     -270.687      87.104     -49.887
  N     -270.916      85.772     -49.649
  O     -271.984      90.609     -47.198
  O     -274.488      90.209     -47.279
  H     -270.943      84.011     -46.009
  H     -274.343      90.922     -47.929
  H     -268.148      82.388     -50.578
  H     -271.392      87.874     -49.598
  H     -272.198      84.187     -49.290
  H     -271.290      86.088     -47.033
  H     -273.237      85.324     -45.805
  H     -274.927      85.548     -48.008
  H     -274.946      87.874     -47.846
  H     -265.861      86.043     -51.812
  H     -266.874      87.446     -51.468
  H     -274.430      87.367     -46.229
  P     -274.621      83.003     -46.004
  C     -273.475      80.785     -46.575
  O     -274.711      81.462     -46.435
  O     -275.938      83.671     -45.779
  O     -273.750      82.958     -44.658
  H     -274.338      82.818     -43.894
  H     -273.002      81.081     -47.517
  H     -273.660      79.708     -46.590
  H     -272.804      81.020     -45.739
  H     -274.075      90.228     -43.402
  H     -275.109      90.359     -44.805
  H     -273.782      91.475     -44.590

 3  4  5  6  7  8  9  10  11  12  22  25  29  30  31  32 0
 6-311+G(2d,p)
 ****
 33  36  37 0
 6-311+G(2d,p)
 ****
 1  2  13  14  15  16  17  18  19  20  21  23  24  26 0
 3-21G
 ****
 27  28  34  35  38  39  40  41  42  43  44  45  46  47  48 0
 3-21G
 ****


