%nproc=1
%NoSave
%Mem=1900MB
#P OB98/GEN NMR

erre ene a

0 1
  C      -31.192      21.173    -133.379
  O      -31.623      21.628    -134.652
  P      -30.824      22.848    -135.319
  C      -32.666      24.624    -134.940
  O      -31.356      24.185    -134.607
  C      -32.741      26.145    -134.961
  O      -32.367      26.652    -133.650
  C      -31.816      26.810    -135.993
  O      -32.528      27.866    -136.653
  C      -30.733      27.448    -135.141
  O      -30.124      28.557    -135.793
  C      -31.537      27.806    -133.892
  N      -29.931      31.544    -130.901
  C      -30.939      31.540    -131.845
  N      -31.567      32.718    -132.059
  N      -31.297      30.482    -132.521
  C      -30.604      29.368    -132.180
  C      -29.592      29.243    -131.257
  C      -29.166      30.438    -130.559
  O      -28.220      30.526    -129.778
  N      -29.145      27.949    -131.179
  C      -29.880      27.292    -132.054
  N      -30.747      28.120    -132.723
  O      -31.453      22.923    -136.789
  O      -29.344      22.687    -135.372
  H      -29.597      29.029    -135.121
  H      -30.743      22.850    -137.456
  H      -29.684      32.392    -130.421
  H      -29.799      26.232    -132.260
  H      -32.194      28.663    -134.091
  H      -29.960      26.702    -134.925
  H      -31.366      33.562    -131.548
  H      -31.406      26.121    -136.737
  H      -32.324      32.729    -132.731
  H      -33.784      26.441    -135.129
  H      -33.373      24.239    -134.198
  H      -32.934      24.221    -135.923
  P      -32.181      28.085    -138.206
  C      -30.940      30.365    -137.998
  O      -30.850      28.973    -138.235
  O      -33.322      29.089    -138.702
  O      -32.144      26.822    -139.001
  H      -33.460      29.000    -139.664
  H      -31.935      30.662    -137.654
  H      -30.714      30.898    -138.925
  H      -30.206      30.644    -137.239
  H      -31.813      20.362    -133.061
  H      -31.261      21.973    -132.672
  H      -30.177      20.841    -133.444

 3  4  5  6  7  8  9  10  11  12  23  26  30  31  33  0
 6-311+G(2d,p)
 ****
 35  36  37  38 0
 6-311+G(2d,p)
 ****
 1  2  13  14  15  16  17  18  19  20  21  22  24  25  27  28  29 0
 3-21G
 ****
 32  34  39  40  41  42  43  44  45  46  47  48  49 0
 3-21G
 ****


