%nproc=1
%NoSave
%Mem=1900MB
#P OB98/GEN NMR

erre ene a

0 1
  C     -217.019     353.134     367.149
  O     -217.878     352.000     367.002
  P     -218.966     351.727     368.155
  C     -218.905     349.158     367.731
  O     -219.695     350.332     367.832
  C     -219.664     348.070     366.972
  O     -220.729     347.508     367.771
  C     -220.319     348.562     365.691
  O     -219.403     348.593     364.608
  C     -221.359     347.472     365.453
  O     -220.733     346.327     364.854
  C     -221.818     347.151     366.880
  N     -226.873     346.984     367.024
  C     -225.964     346.047     366.571
  N     -226.473     344.896     366.087
  N     -224.674     346.228     366.579
  C     -224.298     347.420     367.110
  C     -225.105     348.428     367.592
  C     -226.539     348.221     367.549
  O     -227.390     349.017     367.930
  N     -224.367     349.494     368.038
  C     -223.114     349.123     367.845
  N     -223.016     347.876     367.269
  O     -220.106     352.806     367.828
  O     -218.441     351.878     369.544
  H     -220.407     346.611     363.978
  H     -220.574     353.045     368.650
  H     -227.860     346.799     366.981
  H     -222.243     349.712     368.107
  H     -222.030     346.085     367.022
  H     -222.149     347.795     364.771
  H     -227.456     344.667     366.093
  H     -220.819     349.526     365.845
  H     -225.821     344.185     365.775
  H     -218.950     347.263     366.721
  H     -218.630     348.792     368.728
  H     -217.953     349.406     367.240
  P     -219.530     349.793     363.551
  C     -218.579     348.736     361.378
  O     -218.351     349.575     362.483
  O     -219.058     351.062     364.404
  O     -220.898     349.986     362.979
  H     -219.529     351.866     364.096
  H     -217.738     348.830     360.686
  H     -219.496     349.026     360.858
  H     -218.647     347.694     361.702
  H     -216.353     353.188     366.313
  H     -216.452     353.037     368.051
  H     -217.609     354.025     367.193

 3  4  5  6  7  8  9  10  11  12  23  26  30  31 0
 6-311+G(2d,p)
 ****
 33  35  36  37  38 0
 6-311+G(2d,p)
 ****
 1  2  13  14  15  16  17  18  19  20  21  22  24  25 0
 3-21G
 ****
 27  28  29  32  34  39  40  41  42  43  44  45  46  47  48  49 0
 3-21G
 ****


