%nproc=1
%NoSave
%Mem=1900MB
#P OB98/GEN NMR

erre ene a

0 1
  C     -488.349     151.102      21.489
  O     -487.135     150.493      21.089
  H     -488.381     151.137      22.581
  H     -489.201     150.517      21.126
  H     -488.407     152.124      21.099
  P     -486.880     150.364      19.508
  C     -486.703     147.798      19.119
  O     -487.519     148.964      19.061
  C     -487.204     146.771      18.109
  O     -488.504     146.284      18.510
  C     -487.390     147.326      16.702
  O     -486.172     147.443      16.001
  C     -488.340     146.300      16.105
  O     -487.631     145.149      15.619
  C     -489.214     145.913      17.305
  N     -493.964     145.612      15.450
  C     -492.918     144.763      15.390
  N     -491.682     144.914      15.922
  C     -491.598     146.069      16.599
  C     -492.584     147.029      16.754
  C     -493.820     146.769      16.140
  N     -494.882     147.644      16.184
  N     -492.107     148.099      17.486
  C     -490.860     147.789      17.777
  N     -490.511     146.569      17.265
  O     -485.301     150.111      19.419
  O     -487.303     151.545      18.702
  H     -486.997     145.480      14.952
  H     -484.851     150.945      19.189
  H     -493.083     143.850      14.826
  H     -490.174     148.409      18.343
  H     -489.397     144.833      17.357
  H     -488.900     146.722      15.272
  H     -487.906     148.295      16.750
  H     -486.508     145.918      18.099
  H     -486.752     147.373      20.126
  H     -485.667     148.079      18.903
  H     -495.715     147.422      15.665
  H     -494.747     148.557      16.600
  P     -486.049     148.606      14.899
  C     -484.864     147.461      12.877
  O     -486.084     147.901      13.458
  O     -484.536     149.109      15.039
  O     -487.028     149.722      15.068
  H     -484.496     150.079      14.879
  H     -485.063     147.017      11.924
  H     -484.404     146.739      13.518
  H     -484.207     148.296      12.751

 6  7  8  9  10  11  12  13  14  15  25  28  32  33  34  35 0
 6-311+G(2d,p)
 ****
 36  37  40 0
 6-311+G(2d,p)
 ****
 1  2  3  4  5  16  17  18  19  20  21  22  23  24 0
 3-21G
 ****
 26  27  29  30  31  38  39 41  42  43  44  45  46  47  48 0
 3-21G
 ****


