%nproc=1
%NoSave
%Mem=1900MB
#P OB98/GEN NMR

erre ene a

0 1
  C      659.060       9.974     243.869
  O      659.703      10.980     243.111
  P      661.286      11.183     243.169
  C      663.004      11.985     244.915
  O      661.625      11.765     244.635
  C      663.214      12.142     246.429
  O      662.574      13.378     246.864
  C      662.606      10.979     247.241
  O      663.516      10.364     248.154
  C      661.380      11.621     247.874
  O      660.903      10.939     249.019
  C      661.849      13.066     248.071
  N      660.745      13.986     248.315
  C      660.498      14.345     249.638
  O      661.152      13.955     250.596
  N      659.408      15.148     249.846
  C      658.496      15.523     248.905
  O      657.488      16.159     249.183
  C      658.785      15.077     247.533
  C      659.888      14.360     247.297
  O      661.878      11.965     242.048
  O      661.839       9.683     243.278
  H      659.998      11.255     249.201
  H      661.527       9.185     244.054
  H      659.221      15.421     250.801
  H      658.073      15.349     246.768
  H      660.125      14.018     246.295
  H      662.553      13.147     248.904
  H      660.573      11.599     247.131
  H      662.292      10.160     246.586
  H      664.290      12.229     246.608
  H      663.329      12.898     244.415
  H      663.598      11.155     244.517
  P      663.086       9.510     249.442
  C      662.537      10.000     251.937
  O      662.837      10.518     250.653
  O      663.966       8.346     249.755
  O      661.607       9.010     249.080
  H      661.430       8.164     249.522
  H      661.932      10.731     252.475
  H      663.470       9.843     252.485
  H      661.990       9.058     251.871
  H      658.006      10.009     243.687
  H      659.247      10.137     244.910
  H      659.440       9.015     243.584

 3  4  5  6  7  8  9  10  11  12  13  23  28  29  30  31  32 0
 6-311+G(2d,p)
 ****
 33  34 0
 6-311+G(2d,p)
 ****
 1  2  14  15  16  17  18  19  20  21  22  24  25  26  27 0
 3-21G
 ****
 35  36  37  38  39  40  41  42  43  44  45 0
 3-21G
 ****


