%nproc=1
%NoSave
%Mem=1900MB
#P OB98/GEN NMR

erre ene a

0 1
  C      334.551    -632.128     550.455
  O      334.730    -633.027     549.385
  P      336.214    -633.517     548.986
  C      335.396    -634.225     546.633
  O      336.338    -633.448     547.386
  C      334.870    -633.431     545.443
  O      334.114    -632.283     545.898
  C      335.962    -632.870     544.551
  O      336.575    -633.864     543.765
  C      335.169    -631.826     543.765
  O      334.441    -632.440     542.682
  C      334.196    -631.294     544.836
  N      334.594    -629.989     545.352
  C      334.336    -628.894     544.524
  O      333.871    -629.070     543.385
  N      334.605    -627.634     544.989
  C      335.197    -627.494     546.147
  N      335.404    -626.222     546.594
  C      335.638    -628.632     546.972
  C      335.289    -629.847     546.542
  O      336.648    -634.811     549.593
  O      337.158    -632.310     549.462
  H      337.889    -632.689     549.992
  H      334.063    -631.688     542.145
  H      336.195    -628.459     547.881
  H      335.537    -630.733     547.077
  H      333.173    -631.216     544.421
  H      335.815    -631.054     543.324
  H      336.717    -632.355     545.164
  H      334.205    -634.083     544.869
  H      335.083    -625.452     545.997
  H      334.577    -634.492     547.297
  H      335.539    -625.996     547.573
  H      335.885    -635.152     546.305
  P      338.079    -633.569     543.285
  C      337.281    -634.615     541.052
  O      338.090    -633.642     541.685
  O      338.870    -634.896     543.725
  O      338.696    -632.343     543.879
  H      339.780    -634.654     544.037
  H      337.117    -634.316     540.011
  H      336.301    -634.677     541.533
  H      337.758    -635.586     541.066
  H      333.509    -631.917     550.573
  H      335.078    -631.220     550.249
  H      334.931    -632.565     551.355

 3  4  5  6  7  8  9  10  11  12  13  24  27  28  29  30  32 0
 6-311+G(2d,p)
 ****
 34  35 0
 6-311+G(2d,p)
 ****
 1  2  14  15  16  17  18  19  20  21  22  23  25  26 0
 3-21G
 ****
 31  33  36  37  38  39  40  41  42  43  44  45  46 0
 3-21G
 ****


