%nproc=1
%NoSave
%Mem=1900MB
#P OB98/GEN NMR

erre ene a

0 1
  C     -373.331     216.523      -4.701
  O     -374.464     216.861      -3.925
  H     -373.138     217.331      -5.410
  H     -373.518     215.601      -5.258
  H     -372.457     216.401      -4.057
  P     -374.900     215.805      -2.798
  C     -373.998     217.138      -0.771
  O     -373.828     216.015      -1.625
  C     -373.209     216.952       0.523
  O     -373.817     215.941       1.345
  C     -371.767     216.506       0.318
  O     -370.938     217.609      -0.011
  C     -371.444     215.949       1.695
  O     -371.139     217.030       2.598
  C     -372.770     215.283       2.107
  N     -371.423     210.633       3.814
  C     -371.047     211.872       4.194
  N     -371.412     213.060       3.667
  C     -372.258     212.888       2.640
  C     -372.731     211.685       2.138
  C     -372.286     210.516       2.777
  N     -372.681     209.252       2.392
  N     -373.583     211.899       1.076
  C     -373.665     213.210       0.972
  N     -372.853     213.853       1.873
  O     -375.105     214.407      -3.268
  O     -376.204     216.519      -2.200
  H     -370.248     217.358       2.372
  H     -376.074     217.482      -2.152
  H     -370.362     211.918       5.036
  H     -374.305     213.741       0.277
  H     -372.988     215.438       3.168
  H     -370.574     215.289       1.684
  H     -371.697     215.701      -0.419
  H     -373.252     217.895       1.081
  H     -375.060     217.285      -0.541
  H     -372.186     208.470       2.788
  H     -373.224     209.163       1.545
  H     -373.637     218.019      -1.310
  P     -369.438     217.380      -0.527
  C     -369.875     217.618      -3.049
  O     -369.554     216.725      -1.989
  O     -368.554     216.640       0.414
  O     -368.889     218.849      -0.831
  H     -367.951     218.920      -0.572
  H     -369.925     217.075      -3.970
  H     -369.120     218.373      -3.121
  H     -370.821     218.078      -2.854

 6  7  8  9  10  11  12  13  14  15  25  28  32  33  34  35 0
 6-311+G(2d,p)
 ****
 36  39  40 0
 6-311+G(2d,p)
 ****
 1  2  3  4  5  16  17  18  19  20  21  22  23  24 0
 3-21G
 ****
 26  27  29  30  31  37  38  41  42  43  44  45  46  47 0
 3-21G
 ****
 48 0
 3-21G
 ****


