%nproc=1
%NoSave
%Mem=1900MB
#P OB98/GEN NMR

erre ene a

0 1
  C     1896.288     -16.254    1275.384
  O     1896.647     -15.115    1276.173
  P     1895.687     -14.693    1277.369
  C     1896.630     -16.382    1279.199
  O     1895.551     -16.010    1278.331
  C     1896.220     -16.139    1280.626
  O     1895.084     -16.978    1280.995
  C     1897.317     -16.474    1281.680
  O     1898.305     -15.458    1281.748
  C     1896.489     -16.632    1282.944
  O     1896.157     -15.334    1283.502
  C     1895.197     -17.283    1282.413
  N     1895.158     -18.739    1282.643
  C     1894.695     -19.160    1283.896
  O     1894.361     -18.317    1284.769
  N     1894.675     -20.514    1284.114
  C     1895.120     -21.462    1283.224
  O     1895.099     -22.640    1283.509
  C     1895.620     -20.963    1281.971
  C     1895.624     -19.667    1281.676
  O     1894.267     -14.626    1276.603
  O     1896.119     -13.433    1278.066
  H     1894.243     -15.219    1275.822
  H     1896.997     -14.865    1283.668
  H     1894.347     -20.808    1284.997
  H     1895.953     -21.700    1281.194
  H     1895.969     -19.274    1280.769
  H     1894.274     -16.851    1282.864
  H     1896.973     -17.219    1283.703
  H     1897.770     -17.458    1281.415
  H     1895.887     -15.078    1280.774
  H     1897.527     -15.773    1278.972
  H     1896.866     -17.441    1279.037
  P     1899.781     -15.945    1282.199
  C     1900.801     -15.244    1279.877
  O     1900.605     -16.257    1280.793
  O     1899.462     -17.383    1282.848
  O     1900.480     -14.942    1283.116
  H     1898.840     -17.883    1282.331
  H     1901.644     -15.577    1279.251
  H     1901.071     -14.289    1280.360
  H     1899.921     -15.108    1279.256
  H     1897.026     -16.409    1274.625
  H     1895.336     -16.085    1274.926
  H     1896.233     -17.119    1276.011

 3  4  5  6  7  8  9  10  11  12  13  24  28  29  30  31  32 0
 6-311+G(2d,p)
 ****
 33  34 0
 6-311+G(2d,p)
 ****
 1  2  14  15  16  17  18  19  20  21  22  23  25  26  27 0
 3-21G
 ****
 35  36  37  38  39  40  41  42  43  44  45 0
 3-21G
 ****


