%nproc=1
%NoSave
%Mem=1900MB
#P OB98/GEN NMR

erre ene a

0 1
  C     -368.392    -150.387    -441.732
  O     -369.746    -150.626    -441.410
  H     -367.879    -150.004    -440.841
  H     -368.317    -149.638    -442.523
  H     -367.897    -151.314    -442.048
  P     -370.681    -151.339    -442.491
  C     -371.230    -153.496    -441.173
  O     -371.722    -152.255    -441.684
  C     -372.301    -154.165    -440.316
  O     -372.303    -153.580    -438.988
  C     -373.721    -153.976    -440.845
  O     -373.968    -154.819    -441.951
  C     -374.527    -154.308    -439.600
  O     -374.671    -155.722    -439.431
  C     -373.650    -153.711    -438.479
  N     -374.158    -152.428    -438.005
  C     -374.750    -152.414    -436.747
  O     -374.840    -153.423    -436.037
  N     -375.298    -151.220    -436.345
  C     -375.419    -150.106    -437.126
  O     -376.133    -149.153    -436.818
  C     -374.733    -150.147    -438.422
  C     -374.147    -151.290    -438.803
  O     -369.960    -152.039    -443.607
  O     -371.602    -150.153    -443.046
  H     -371.264    -149.863    -443.915
  H     -375.237    -156.023    -440.169
  H     -375.760    -151.227    -435.446
  H     -374.752    -149.262    -439.034
  H     -373.655    -151.358    -439.770
  H     -373.599    -154.398    -437.623
  H     -375.524    -153.869    -439.642
  H     -373.883    -152.932    -441.112
  H     -372.047    -155.234    -440.222
  H     -370.345    -153.295    -440.564
  H     -370.942    -154.140    -442.012
  P     -373.726    -154.272    -443.443
  C     -372.935    -156.557    -444.318
  O     -373.880    -155.498    -444.467
  O     -372.489    -153.452    -443.627
  O     -375.032    -153.394    -443.739
  H     -374.759    -152.510    -444.091
  H     -373.131    -157.315    -445.047
  H     -373.020    -156.976    -443.337
  H     -371.946    -156.174    -444.458

 6  7  8  9  10  11  12  13  14  15  16  27  31  32  33  34  35 0
 6-311+G(2d,p)
 ****
 36  37 0
 6-311+G(2d,p)
 ****
 1  2  3  4  5  17  18  19  20  21  22  23  24  25 0
 3-21G
 ****
 26  28  29  30  38  39  40  41  42  43  44  45 0
 3-21G
 ****


