%nproc=1
%NoSave
%Mem=1900MB
#P OB98/GEN NMR

erre ene a

0 1
  C     -131.880     253.071     330.412
  O     -131.608     254.052     329.432
  H     -131.640     253.481     331.398
  H     -131.260     252.184     330.238
  H     -132.939     252.796     330.392
  P     -131.936     253.662     327.911
  C     -129.475     253.834     327.073
  O     -130.799     254.355     327.014
  C     -128.467     254.976     327.068
  O     -128.438     255.588     325.761
  C     -128.796     256.109     328.039
  O     -128.426     255.789     329.372
  C     -127.988     257.253     327.444
  O     -126.618     257.210     327.869
  C     -128.076     256.975     325.935
  N     -128.627     261.032     322.896
  C     -127.530     260.370     323.328
  N     -127.473     259.280     324.123
  C     -128.708     258.878     324.471
  C     -129.915     259.461     324.115
  C     -129.850     260.591     323.281
  N     -130.960     261.286     322.870
  N     -130.970     258.790     324.701
  C     -130.408     257.816     325.398
  N     -129.045     257.829     325.280
  O     -133.252     254.522     327.596
  O     -132.147     252.207     327.656
  H     -126.138     257.868     327.329
  H     -134.045     253.975     327.746
  H     -126.575     260.767     322.991
  H     -130.946     257.089     325.999
  H     -127.117     257.125     325.432
  H     -128.393     258.221     327.742
  H     -129.865     256.359     327.981
  H     -127.470     254.564     327.274
  H     -129.303     253.192     326.199
  H     -129.374     253.232     327.986
  H     -130.837     262.105     322.293
  H     -131.865     261.028     323.239
  P     -129.100     256.616     330.569
  C     -126.874     257.917     330.923
  O     -127.911     257.153     331.510
  O     -129.799     255.482     331.449
  O     -130.066     257.667     330.133
  H     -130.757     255.440     331.260
  H     -126.167     258.196     331.676
  H     -127.288     258.798     330.478
  H     -126.384     257.335     330.171

 6  7  8  9  10  11  12  13  14  15  25  28  32  33  34  35 0
 6-311+G(2d,p)
 ****
 36  37  40 0
 6-311+G(2d,p)
 ****
 1  2  3  4  5  16  17  18  19  20  21  22  23  24 0
 3-21G
 ****
 26  27  29  30  31  38  39 41  42  43  44  45  46  47  48 0
 3-21G
 ****


