%nproc=1
%NoSave
%Mem=1900MB
#P OB98/GEN NMR

erre ene a

0 1
  C      138.268    -270.079    -236.987
  O      137.463    -270.181    -235.834
  P      137.772    -271.291    -234.718
  C      135.288    -271.589    -234.103
  O      136.457    -272.210    -234.627
  C      134.169    -272.613    -233.952
  O      133.654    -273.018    -235.250
  C      134.604    -273.915    -233.298
  O      134.997    -273.864    -231.943
  C      133.436    -274.826    -233.643
  O      132.338    -274.625    -232.751
  C      133.074    -274.335    -235.066
  N      133.520    -275.270    -236.097
  C      133.086    -276.586    -235.959
  O      132.366    -276.971    -235.036
  N      133.532    -277.464    -236.907
  C      134.388    -277.176    -237.932
  O      134.785    -278.027    -238.718
  C      134.829    -275.774    -238.015
  C      134.383    -274.898    -237.112
  O      138.253    -270.762    -233.412
  O      138.815    -272.264    -235.452
  H      131.588    -275.152    -233.085
  H      138.481    -272.682    -236.265
  H      133.240    -278.425    -236.819
  H      135.498    -275.510    -238.825
  H      134.694    -273.861    -237.155
  H      131.984    -274.213    -235.164
  H      133.711    -275.883    -233.582
  H      135.478    -274.298    -233.842
  H      133.343    -272.143    -233.412
  H      134.965    -270.804    -234.796
  H      135.526    -271.112    -233.143
  P      136.177    -274.759    -231.334
  C      135.282    -274.291    -228.948
  O      135.732    -275.254    -229.877
  O      137.568    -274.235    -231.486
  O      136.034    -276.109    -232.197
  H      136.914    -276.516    -232.296
  H      135.064    -274.797    -228.002
  H      134.366    -273.816    -229.306
  H      136.054    -273.534    -228.770
  H      137.905    -269.285    -237.606
  H      138.232    -271.000    -237.530
  H      139.278    -269.874    -236.700

 3  4  5  6  7  8  9  10  11  12  13  23  28  29  30  31  32 0
 6-311+G(2d,p)
 ****
 33  34 0
 6-311+G(2d,p)
 ****
 1  2  14  15  16  17  18  19  20  21  22  24  25  26  27 0
 3-21G
 ****
 35  36  37  38  39  40  41  42  43  44  45 0
 3-21G
 ****


