%nproc=1
%NoSave
%Mem=1900MB
#P OB98/GEN NMR

erre ene a

0 1
  C       35.170      -0.835      36.153
  O       35.267      -2.241      36.372
  P       34.026      -3.243      36.396
  C       32.438      -4.173      34.530
  O       33.726      -3.701      34.893
  C       32.473      -5.211      33.395
  O       33.170      -4.653      32.251
  C       33.264      -6.448      33.823
  O       32.636      -7.467      34.577
  C       33.927      -6.942      32.546
  O       33.163      -7.950      31.884
  C       34.007      -5.680      31.681
  N       38.260      -5.615      28.840
  C       37.096      -6.333      28.652
  N       37.074      -7.181      27.602
  N       36.055      -6.240      29.433
  C       36.242      -5.424      30.494
  C       37.355      -4.675      30.799
  C       38.484      -4.740      29.894
  O       39.533      -4.116      30.007
  N       37.189      -3.981      31.969
  C       35.989      -4.327      32.385
  N       35.368      -5.198      31.518
  O       32.859      -2.807      37.216
  O       34.635      -4.570      37.083
  H       33.708      -8.318      31.167
  H       33.905      -4.983      37.587
  H       39.024      -5.707      28.193
  H       35.520      -3.975      33.296
  H       33.623      -5.868      30.671
  H       34.905      -7.388      32.767
  H       37.882      -7.386      27.035
  H       34.085      -6.096      34.461
  H       36.315      -7.864      27.587
  H       31.463      -5.442      33.047
  H       31.852      -3.300      34.230
  H       31.936      -4.598      35.401
  P       33.288      -8.288      35.787
  C       34.474      -7.537      37.930
  O       33.387      -7.311      37.050
  O       34.820      -8.460      35.357
  O       32.660      -9.614      36.061
  H       35.245      -9.158      35.888
  H       34.270      -7.041      38.882
  H       35.387      -7.119      37.500
  H       34.613      -8.608      38.111
  H       36.147      -0.401      36.187
  H       34.558      -0.397      36.914
  H       34.732      -0.653      35.194

 3  4  5  6  7  8  9  10  11  12  23  26  30  31 0
 6-311+G(2d,p)
 ****
 33  35  36  37  38 0
 6-311+G(2d,p)
 ****
 1  2  13  14  15  16  17  18  19  20  21  22  24  25 0
 3-21G
 ****
 27  28  29  32  34  39  40  41  42  43  44  45  46  47  48  49 0
 3-21G
 ****


