%nproc=1
%NoSave
%Mem=1900MB
#P OB98/GEN NMR

erre ene a

0 1
  C      178.894     -64.281     -47.809
  O      177.596     -63.724     -47.811
  P      177.093     -62.674     -48.903
  C      174.828     -63.931     -49.088
  O      175.938     -63.373     -49.777
  C      173.592     -63.020     -49.109
  O      173.308     -62.626     -50.468
  C      172.362     -63.789     -48.615
  O      172.106     -63.912     -47.231
  C      171.200     -63.243     -49.436
  O      170.450     -62.251     -48.732
  C      171.885     -62.630     -50.662
  N      168.588     -63.181     -54.474
  C      168.675     -62.169     -53.538
  N      167.637     -61.300     -53.509
  N      169.673     -62.035     -52.704
  C      170.583     -63.036     -52.790
  C      170.612     -64.081     -53.682
  C      169.526     -64.191     -54.627
  O      169.369     -65.119     -55.417
  N      171.646     -64.940     -53.429
  C      172.228     -64.438     -52.358
  N      171.593     -63.307     -51.909
  O      178.145     -61.881     -49.608
  O      176.249     -61.646     -47.989
  H      169.744     -61.928     -49.326
  H      176.355     -60.755     -48.374
  H      167.754     -63.274     -55.042
  H      173.081     -64.876     -51.848
  H      171.583     -61.581     -50.787
  H      170.492     -64.042     -49.685
  H      166.791     -61.455     -54.036
  H      172.481     -64.825     -48.955
  H      167.586     -60.652     -52.732
  H      173.779     -62.092     -48.562
  H      175.144     -64.128     -48.058
  H      174.567     -64.894     -49.535
  P      170.810     -64.565     -46.559
  C      172.089     -66.763     -46.294
  O      170.890     -66.151     -46.740
  O      169.609     -64.155     -47.539
  O      170.523     -64.103     -45.166
  H      168.762     -64.193     -47.055
  H      172.165     -67.760     -46.734
  H      172.073     -66.852     -45.204
  H      172.964     -66.174     -46.596
  H      178.992     -64.954     -46.983
  H      179.618     -63.498     -47.719
  H      179.055     -64.813     -48.724

 3  4  5  6  7  8  9  10  11  12  23  26  30  31 0
 6-311+G(2d,p)
 ****
 33  35  36  37  38 0
 6-311+G(2d,p)
 ****
 1  2  13  14  15  16  17  18  19  20  21  22  24  25 0
 3-21G
 ****
 27  28  29  32  34  39  40  41  42  43  44  45  46  47  48  49 0
 3-21G
 ****


