%nproc=1
%NoSave
%Mem=1900MB
#P OB98/GEN NMR

erre ene a

0 1
  C      285.344      46.126    1192.450
  O      286.323      47.148    1192.469
  P      287.868      46.687    1192.294
  C      288.443      45.784    1194.677
  O      288.546      46.833    1193.741
  C      289.155      46.168    1195.969
  O      290.592      46.132    1195.767
  C      288.835      47.593    1196.472
  O      287.619      47.586    1197.191
  C      290.056      47.879    1197.330
  O      289.930      47.279    1198.637
  C      291.185      47.229    1196.529
  N      295.659      49.276    1195.322
  C      295.294      48.517    1196.416
  N      296.284      48.209    1197.299
  N      294.082      48.077    1196.630
  C      293.198      48.461    1195.693
  C      293.436      49.243    1194.554
  C      294.788      49.660    1194.311
  O      295.177      50.248    1193.306
  N      292.285      49.440    1193.837
  C      291.362      48.761    1194.512
  N      291.872      48.138    1195.620
  O      288.504      47.876    1191.433
  O      288.044      45.343    1191.651
  H      289.729      46.327    1198.542
  H      288.545      47.628    1190.486
  H      296.610      49.558    1195.209
  H      290.326      48.683    1194.212
  H      291.952      46.793    1197.176
  H      290.188      48.962    1197.503
  H      297.225      48.542    1197.216
  H      288.788      48.292    1195.633
  H      296.038      47.654    1198.105
  H      288.906      45.435    1196.741
  H      288.890      44.881    1194.269
  H      287.369      45.580    1194.881
  P      286.395      48.461    1196.602
  C      287.396      50.725    1197.371
  O      286.330      49.805    1197.459
  O      285.108      47.638    1197.049
  O      286.443      48.645    1195.120
  H      284.411      47.699    1196.347
  H      286.999      51.746    1197.542
  H      287.878      50.713    1196.378
  H      288.144      50.508    1198.138
  H      284.374      46.559    1192.574
  H      285.532      45.437    1193.247
  H      285.387      45.609    1191.514

 3  4  5  6  7  8  9  10  11  12  23  26  30  31 0
 6-311+G(2d,p)
 ****
 33  35  36  37  38 0
 6-311+G(2d,p)
 ****
 1  2  13  14  15  16  17  18  19  20  21  22  24  25 0
 3-21G
 ****
 27  28  29  32  34  39  40  41  42  43  44  45  46  47  48  49 0
 3-21G
 ****


