%nproc=1
%NoSave
%Mem=1900MB
#P OB98/GEN NMR

erre ene a

0 1
  C      472.405    -299.547      53.537
  O      473.757    -299.458      53.072
  P      474.164    -298.155      52.218
  C      476.274    -297.912      53.753
  O      475.745    -297.969      52.434
  C      477.558    -298.744      53.854
  O      477.236    -300.095      54.331
  C      478.328    -298.888      52.534
  O      479.726    -298.852      52.865
  C      477.931    -300.269      52.059
  O      478.880    -300.817      51.148
  C      477.828    -301.016      53.399
  N      477.048    -302.252      53.303
  C      477.760    -303.437      53.132
  O      478.983    -303.468      52.975
  N      477.015    -304.580      53.089
  C      475.654    -304.650      53.113
  O      475.034    -305.709      53.067
  C      474.950    -303.364      53.182
  C      475.663    -302.239      53.262
  O      473.500    -296.993      53.089
  O      473.707    -298.228      50.799
  H      473.545    -297.148      54.052
  H      479.756    -300.857      51.597
  H      477.510    -305.455      52.992
  H      473.866    -303.372      53.147
  H      475.181    -301.267      53.292
  H      478.823    -301.278      53.772
  H      476.957    -300.235      51.568
  H      478.092    -298.098      51.818
  H      478.199    -298.277      54.618
  H      475.537    -298.310      54.462
  H      476.447    -296.873      54.025
  P      480.658    -297.780      52.113
  C      482.498    -297.835      53.974
  O      482.155    -298.022      52.620
  O      480.222    -296.439      52.882
  O      480.447    -297.692      50.637
  H      480.208    -296.548      53.852
  H      483.475    -298.269      54.160
  H      481.769    -298.303      54.644
  H      482.542    -296.755      54.198
  H      472.276    -300.457      54.086
  H      471.739    -299.538      52.700
  H      472.191    -298.713      54.173

 3  4  5  6  7  8  9  10  11  12  13  24  28  29  30  31  32 0
 6-311+G(2d,p)
 ****
 33  34 0
 6-311+G(2d,p)
 ****
 1  2  14  15  16  17  18  19  20  21  22  23  25  26  27 0
 3-21G
 ****
 35  36  37  38  39  40  41  42  43  44  45 0
 3-21G
 ****


