%nproc=1
%NoSave
%Mem=1900MB
#P OB98/GEN NMR

erre ene a

0 1
  C       53.100     625.671    -100.180
  O       53.388     625.328     -98.835
  P       53.907     623.840     -98.538
  C       56.261     624.907     -98.692
  O       55.445     623.788     -99.013
  C       57.657     624.455     -98.275
  O       58.269     623.729     -99.379
  C       58.605     625.606     -97.890
  O       59.334     625.242     -96.708
  C       59.590     625.646     -99.044
  O       60.841     626.205     -98.655
  C       59.645     624.167     -99.424
  N       63.955     623.166    -101.870
  C       63.674     623.139    -100.511
  N       64.717     622.855     -99.692
  N       62.496     623.365    -100.001
  C       61.550     623.598    -100.942
  C       61.694     623.645    -102.312
  C       63.025     623.452    -102.856
  O       63.348     623.554    -104.039
  N       60.493     623.892    -102.934
  C       59.623     624.007    -101.941
  N       60.226     623.884    -100.715
  O       53.135     622.965     -99.642
  O       53.635     623.331     -97.161
  H       60.654     627.049     -98.209
  H       52.627     622.260     -99.205
  H       64.887     622.996    -102.203
  H       58.574     624.201    -102.069
  H       60.207     623.602     -98.669
  H       59.172     626.258     -99.854
  H       65.649     622.632    -100.018
  H       58.101     626.563     -97.735
  H       64.537     622.809     -98.705
  H       57.558     623.738     -97.440
  H       55.799     625.469     -97.871
  H       56.327     625.558     -99.569
  P       59.768     626.459     -95.749
  C       57.566     626.563     -94.355
  O       58.407     627.179     -95.317
  O       60.449     627.500     -96.756
  O       60.676     626.048     -94.635
  H       61.080     628.070     -96.281
  H       58.054     625.704     -93.879
  H       56.648     626.232     -94.843
  H       57.314     627.296     -93.578
  H       52.766     626.687    -100.225
  H       52.333     625.027    -100.556
  H       53.983     625.559    -100.774

 3  4  5  6  7  8  9  10  11  12  23  26  30  31  33  0
 6-311+G(2d,p)
 ****
 35  36  37  38 0
 6-311+G(2d,p)
 ****
 1  2  13  14  15  16  17  18  19  20  21  22  24  25  27  28  29 0
 3-21G
 ****
 32  34  39  40  41  42  43  44  45  46  47  48  49 0
 3-21G
 ****


