%nproc=1
%NoSave
%Mem=1900MB
#P OB98/GEN NMR

erre ene a

0 1
  C      102.097    -577.631     332.262
  O      101.454    -578.854     332.564
  H      103.176    -577.785     332.189
  H      101.729    -577.270     331.297
  H      101.873    -576.885     333.025
  P      101.879    -579.556     333.947
  C       99.424    -580.171     334.513
  O      100.741    -580.650     334.284
  C       98.407    -581.216     334.102
  O       98.401    -581.312     332.650
  C       98.676    -582.629     334.666
  O       97.502    -583.171     335.285
  C       99.014    -583.460     333.439
  O       98.568    -584.808     333.545
  C       98.309    -582.707     332.323
  N       99.064    -586.302     328.779
  C       98.154    -586.194     329.764
  N       97.935    -585.171     330.619
  C       98.775    -584.161     330.339
  C       99.748    -584.095     329.363
  C       99.896    -585.255     328.565
  N      100.873    -585.372     327.606
  N      100.435    -582.891     329.402
  C       99.904    -582.250     330.416
  N       98.907    -582.969     331.029
  O      101.630    -578.405     335.035
  O      103.281    -580.053     333.982
  H       99.156    -585.356     332.985
  H      102.479    -578.195     335.466
  H       97.500    -587.057     329.900
  H      100.220    -581.279     330.783
  H       97.242    -582.964     332.270
  H      100.108    -583.471     333.288
  H       99.508    -582.631     335.392
  H       97.402    -580.883     334.401
  H       99.265    -579.255     333.923
  H      100.987    -586.279     327.160
  H      101.572    -584.655     327.508
  H       99.315    -579.924     335.577
  P       97.511    -583.238     336.889
  C       95.035    -582.488     337.135
  O       96.004    -583.503     337.377
  O       97.798    -581.720     337.317
  O       98.545    -584.165     337.453
  H       98.593    -581.679     337.886
  H       94.085    -582.804     337.513
  H       94.959    -582.311     336.082
  H       95.332    -581.586     337.628

 6  7  8  9  10  11  12  13  14  15  25  28  32  33  34  35 0
 6-311+G(2d,p)
 ****
 36  39  40 0
 6-311+G(2d,p)
 ****
 1  2  3  4  5  16  17  18  19  20  21  22  23  24 0
 3-21G
 ****
 26  27  29  30  31  37  38  41  42  43  44  45  46  47  48 0
 3-21G
 ****


