%nproc=1
%NoSave
%Mem=1900MB
#P OB98/GEN NMR

erre ene a

0 1
  C      118.892      89.131    -182.788
  O      119.642      87.942    -182.943
  H      119.550      90.003    -182.841
  H      118.161      89.192    -183.598
  H      118.359      89.122    -181.832
  P      120.759      87.650    -181.828
  C      122.931      88.836    -181.049
  O      121.818      88.853    -181.929
  C      123.369      90.263    -180.731
  O      122.277      91.001    -180.144
  C      124.520      90.370    -179.734
  O      125.778      90.134    -180.351
  C      124.378      91.819    -179.292
  O      124.948      92.688    -180.288
  C      122.852      91.992    -179.252
  N      120.347      94.282    -175.422
  C      120.701      94.712    -176.653
  N      121.349      94.036    -177.625
  C      121.619      92.781    -177.230
  C      121.302      92.192    -176.018
  C      120.640      93.002    -175.079
  N      120.343      92.571    -173.796
  N      121.758      90.890    -175.972
  C      122.354      90.702    -177.132
  N      122.289      91.815    -177.928
  O      121.547      86.393    -182.437
  O      120.232      87.363    -180.461
  H      125.114      93.544    -179.852
  H      121.200      85.574    -182.039
  H      120.430      95.736    -176.888
  H      122.846      89.788    -177.435
  H      122.538      92.977    -179.620
  H      124.886      92.031    -178.347
  H      124.364      89.715    -178.869
  H      123.631      90.755    -181.678
  H      123.762      88.300    -181.521
  H      120.317      93.322    -173.111
  H      120.817      91.718    -173.520
  H      122.645      88.314    -180.131
  P      127.073      90.071    -179.406
  C      128.659      91.799    -178.318
  O      127.547      91.587    -179.177
  O      128.189      89.463    -180.379
  O      126.921      89.246    -178.174
  H      128.571      88.656    -179.978
  H      128.866      92.847    -178.255
  H      129.514      91.289    -178.709
  H      128.434      91.421    -177.343

 6  7  8  9  10  11  12  13  14  15  25  28  32  33  34  35 0
 6-311+G(2d,p)
 ****
 36  39  40 0
 6-311+G(2d,p)
 ****
 1  2  3  4  5  16  17  18  19  20  21  22  23  24 0
 3-21G
 ****
 26  27  29  30  31  37  38  41  42  43  44  45  46  47  48 0
 3-21G
 ****


