%nproc=1
%NoSave
%Mem=1900MB
#P OB98/GEN NMR

erre ene a

0 1
  C       33.809     -69.182     -65.947
  O       33.820     -70.271     -65.047
  P       34.261     -70.092     -63.515
  C       36.358     -71.554     -63.794
  O       35.858     -70.257     -63.500
  C       37.585     -71.884     -62.943
  O       38.730     -71.127     -63.424
  C       37.424     -71.580     -61.445
  O       38.179     -72.578     -60.750
  C       38.090     -70.223     -61.315
  O       38.459     -69.918     -59.976
  C       39.252     -70.375     -62.306
  N       39.795     -69.083     -62.715
  C       40.391     -68.308     -61.717
  O       40.374     -68.685     -60.543
  N       40.944     -67.099     -62.060
  C       40.817     -66.659     -63.272
  N       41.390     -65.458     -63.554
  C       40.085     -67.387     -64.325
  C       39.617     -68.587     -63.985
  O       33.531     -70.950     -62.539
  O       34.074     -68.524     -63.251
  H       38.860     -69.022     -59.963
  H       33.118     -68.308     -63.122
  H       39.956     -66.955     -65.305
  H       39.067     -69.197     -64.690
  H       40.063     -70.966     -61.863
  H       37.400     -69.440     -61.658
  H       36.385     -71.575     -61.108
  H       37.818     -72.947     -63.085
  H       41.895     -64.999     -62.807
  H       36.649     -71.574     -64.849
  H       41.419     -65.063     -64.484
  H       35.571     -72.302     -63.650
  P       37.594     -73.311     -59.451
  C       39.022     -71.877     -57.883
  O       37.709     -72.272     -58.237
  O       38.162     -74.665     -59.177
  O       36.015     -73.386     -59.717
  H       35.613     -74.033     -59.106
  H       38.968     -70.981     -57.257
  H       39.618     -71.653     -58.772
  H       39.504     -72.677     -57.316
  H       33.485     -69.518     -66.910
  H       34.795     -68.774     -66.025
  H       33.138     -68.429     -65.588

 3  4  5  6  7  8  9  10  11  12  13  23  27  28  29  30  32 0
 6-311+G(2d,p)
 ****
 34  35 0
 6-311+G(2d,p)
 ****
 1  2  14  15  16  17  18  19  20  21  22  24  25  26 0
 3-21G
 ****
 31  33  36  37  38  39  40  41  42  43  44  45  46 0
 3-21G
 ****


