%nproc=1
%NoSave
%Mem=1900MB
#P OB98/GEN NMR

erre ene a

0 1
  C      335.118     188.172    -133.613
  O      335.761     189.368    -134.006
  H      334.253     188.426    -132.998
  H      335.795     187.545    -133.026
  H      334.771     187.621    -134.494
  P      337.132     189.263    -134.828
  C      338.223     190.372    -132.762
  O      338.139     190.329    -134.178
  C      339.502     191.091    -132.312
  O      340.650     190.259    -132.649
  C      339.716     192.457    -132.987
  O      340.441     193.280    -132.064
  C      340.591     192.075    -134.163
  O      341.190     193.205    -134.750
  C      341.511     191.045    -133.504
  N      342.219     190.222    -134.472
  C      343.591     190.456    -134.596
  O      344.136     191.326    -133.918
  N      344.304     189.718    -135.506
  C      343.690     188.873    -136.274
  N      344.453     188.187    -137.166
  C      342.232     188.639    -136.215
  C      341.565     189.337    -135.299
  O      337.008     189.344    -136.312
  O      337.750     187.858    -134.370
  H      340.509     193.862    -135.018
  H      337.633     187.200    -135.081
  H      341.765     187.937    -136.890
  H      340.491     189.234    -135.179
  H      342.251     191.538    -132.858
  H      339.994     191.597    -134.948
  H      338.780     192.942    -133.274
  H      339.488     191.185    -131.220
  H      345.446     188.386    -137.179
  H      338.229     189.340    -132.401
  H      344.082     187.520    -137.827
  H      337.349     190.885    -132.347
  P      339.717     194.211    -130.975
  C      339.674     196.193    -132.627
  O      340.014     195.749    -131.317
  O      340.013     193.832    -129.561
  O      338.149     194.060    -131.275
  H      337.655     194.161    -130.441
  H      339.920     197.230    -132.727
  H      338.625     196.058    -132.788
  H      340.222     195.625    -133.350

 6  7  8  9  10  11  12  13  14  15  16  26  30  31  32  33  35 0
 6-311+G(2d,p)
 ****
 37  38 0
 6-311+G(2d,p)
 ****
 1  2  3  4  5  17  18  19  20  21  22  23  24  25 0
 3-21G
 ****
 27  28  29  34  36  39  40  41  42  43  44  45  46 0
 3-21G
 ****


