%nproc=1
%NoSave
%Mem=1900MB
#P OB98/GEN NMR

erre ene a

0 1
  C     -307.490      31.476    -411.173
  O     -306.382      32.345    -411.277
  H     -307.827      31.459    -410.133
  H     -307.204      30.462    -411.462
  H     -308.318      31.821    -411.799
  P     -305.822      32.710    -412.733
  C     -304.268      30.653    -412.738
  O     -305.326      31.338    -413.396
  C     -302.970      30.824    -413.521
  O     -301.843      30.422    -412.714
  C     -302.892      29.983    -414.788
  O     -303.685      30.542    -415.819
  C     -301.394      30.000    -415.052
  O     -301.001      31.226    -415.686
  C     -300.831      29.915    -413.613
  N     -300.421      28.563    -413.232
  C     -299.155      28.160    -413.646
  O     -298.416      28.866    -414.327
  N     -298.775      26.903    -413.260
  C     -299.552      26.000    -412.592
  O     -299.181      24.863    -412.319
  C     -300.893      26.467    -412.213
  C     -301.261      27.707    -412.545
  O     -304.832      33.825    -412.788
  O     -307.143      33.055    -413.569
  H     -301.254      31.949    -415.078
  H     -307.250      34.022    -413.633
  H     -297.867      26.588    -413.560
  H     -301.540      25.779    -411.689
  H     -302.246      28.069    -412.277
  H     -299.959      30.576    -413.509
  H     -301.071      29.191    -415.706
  H     -303.199      28.949    -414.580
  H     -302.853      31.891    -413.757
  H     -304.520      29.587    -412.681
  H     -304.163      31.048    -411.723
  P     -304.197      29.643    -417.039
  C     -302.074      30.334    -418.291
  O     -302.917      29.251    -417.925
  O     -305.340      30.212    -417.817
  O     -304.604      28.255    -416.353
  H     -305.576      28.176    -416.315
  H     -301.256      29.968    -418.876
  H     -301.697      30.807    -417.408
  H     -302.633      31.043    -418.865

 6  7  8  9  10  11  12  13  14  15  16  26  31  32  33  34  35 0
 6-311+G(2d,p)
 ****
 36  37 0
 6-311+G(2d,p)
 ****
 1  2  3  4  5  17  18  19  20  21  22  23  24  25 0
 3-21G
 ****
 27  28  29  30  38  39  40  41  42  43  44  45 0
 3-21G
 ****


