%nproc=1
%NoSave
%Mem=1900MB
#P OB98/GEN NMR

erre ene a

0 1
  C     -188.735      20.914    -159.084
  O     -189.328      22.181    -159.253
  H     -189.428      20.275    -158.532
  H     -187.812      21.014    -158.506
  H     -188.515      20.443    -160.046
  P     -188.751      23.158    -160.381
  C     -189.799      21.697    -162.231
  O     -188.615      22.311    -161.739
  C     -189.673      21.318    -163.708
  O     -189.250      22.462    -164.482
  C     -188.621      20.235    -163.943
  O     -189.066      18.905    -163.751
  C     -188.241      20.481    -165.401
  O     -189.145      19.801    -166.287
  C     -188.392      21.997    -165.539
  N     -183.668      22.460    -167.426
  C     -184.635      21.522    -167.726
  N     -184.276      20.551    -168.596
  N     -185.834      21.529    -167.205
  C     -186.017      22.501    -166.280
  C     -185.129      23.479    -165.889
  C     -183.822      23.494    -166.515
  O     -182.927      24.299    -166.278
  N     -185.671      24.297    -164.927
  C     -186.854      23.768    -164.684
  N     -187.120      22.693    -165.499
  O     -187.220      23.366    -159.951
  O     -189.457      24.473    -160.513
  H     -188.989      20.126    -167.192
  H     -186.894      24.220    -160.287
  H     -182.771      22.422    -167.879
  H     -187.564      24.139    -163.952
  H     -188.877      22.267    -166.485
  H     -187.238      20.107    -165.626
  H     -183.333      20.437    -168.932
  H     -187.738      20.420    -163.323
  H     -184.853      19.709    -168.635
  H     -190.657      21.016    -164.087
  H     -190.606      22.418    -162.098
  H     -190.047      20.817    -161.631
  P     -188.103      17.830    -163.059
  C     -189.917      17.368    -161.251
  O     -188.574      17.693    -161.533
  O     -186.711      18.612    -162.961
  O     -187.966      16.543    -163.796
  H     -186.137      18.375    -163.713
  H     -190.057      17.318    -160.191
  H     -190.154      16.420    -161.688
  H     -190.559      18.120    -161.660

 6  7  8  9  10  11  12  13  14  15  26  29  33  34 0
 6-311+G(2d,p)
 ****
 36  38  39  40  41 0
 6-311+G(2d,p)
 ****
 1  2  3  4  5  16  17  18  19  20  21  22  23  24  25 0
 3-21G
 ****
 27  28  30  31  32  35  37  42  43  44  45  46  47 0
 3-21G
 ****
 48  49 0
 3-21G
 ****


