%nproc=1
%NoSave
%Mem=1900MB
#P OB98/GEN NMR

erre ene a

0 1
  C     -306.434    -225.549     -82.349
  O     -305.816    -225.550     -83.615
  H     -306.703    -226.579     -82.093
  H     -307.350    -224.952     -82.371
  H     -305.753    -225.164     -81.587
  P     -305.353    -224.156     -84.266
  C     -306.310    -224.816     -86.554
  O     -305.137    -224.471     -85.831
  C     -306.123    -224.576     -88.054
  O     -305.729    -223.195     -88.277
  C     -305.052    -225.473     -88.695
  O     -305.555    -226.036     -89.909
  C     -303.921    -224.507     -89.012
  O     -303.079    -224.961     -90.067
  C     -304.708    -223.223     -89.292
  N     -303.858    -222.040     -89.258
  C     -303.287    -221.658     -90.477
  O     -303.518    -222.303     -91.500
  N     -302.428    -220.589     -90.499
  C     -302.127    -219.986     -89.392
  N     -301.246    -218.953     -89.477
  C     -302.683    -220.375     -88.079
  C     -303.537    -221.398     -88.087
  O     -304.196    -223.505     -83.586
  O     -306.671    -223.249     -84.269
  H     -302.334    -224.326     -90.166
  H     -306.406    -222.300     -84.314
  H     -302.396    -219.843     -87.184
  H     -303.996    -221.756     -87.171
  H     -305.202    -223.273     -90.271
  H     -303.297    -224.373     -88.116
  H     -304.719    -226.278     -88.040
  H     -307.094    -224.701     -88.549
  H     -300.884    -218.726     -90.396
  H     -307.147    -224.219     -86.171
  H     -300.918    -218.424     -88.683
  H     -306.519    -225.879     -86.388
  P     -306.304    -227.449     -89.777
  C     -305.394    -228.266     -92.065
  O     -306.536    -228.024     -91.256
  O     -307.772    -227.045     -89.282
  O     -305.641    -228.386     -88.822
  H     -307.898    -227.324     -88.354
  H     -305.705    -228.645     -93.016
  H     -304.762    -228.983     -91.584
  H     -304.855    -227.352     -92.204

 6  7  8  9  10  11  12  13  14  15  16  26  30  31  32  33  35 0
 6-311+G(2d,p)
 ****
 37  38 0
 6-311+G(2d,p)
 ****
 1  2  3  4  5  17  18  19  20  21  22  23  24  25 0
 3-21G
 ****
 27  28  29  34  36  39  40  41  42  43  44  45  46 0
 3-21G
 ****


