%nproc=1
%NoSave
%Mem=1900MB
#P OB98/GEN NMR

erre ene a

0 1
  C     -422.244    -459.139     326.594
  O     -423.301    -458.397     327.167
  H     -421.855    -459.837     327.339
  H     -421.431    -458.476     326.280
  H     -422.607    -459.714     325.736
  P     -423.940    -457.188     326.335
  C     -422.851    -455.599     328.041
  O     -424.038    -455.943     327.342
  C     -422.861    -456.188     329.456
  O     -423.587    -455.281     330.332
  C     -423.533    -457.567     329.539
  O     -422.816    -458.360     330.490
  C     -424.915    -457.233     330.059
  O     -425.515    -458.340     330.704
  C     -424.645    -456.025     330.963
  N     -425.849    -455.218     331.149
  C     -426.396    -455.198     332.438
  O     -425.858    -455.836     333.349
  N     -427.574    -454.532     332.650
  C     -428.187    -453.972     331.653
  N     -429.365    -453.352     331.927
  C     -427.657    -453.983     330.274
  C     -426.501    -454.615     330.098
  O     -425.201    -457.495     325.593
  O     -422.765    -456.756     325.335
  H     -426.415    -458.084     331.019
  H     -422.838    -457.250     324.495
  H     -428.209    -453.505     329.477
  H     -426.041    -454.688     329.115
  H     -424.284    -456.349     331.948
  H     -425.565    -456.940     329.224
  H     -423.569    -458.085     328.574
  H     -421.833    -456.231     329.827
  H     -429.702    -453.393     332.886
  H     -422.797    -454.505     328.101
  H     -429.951    -452.919     331.228
  H     -421.976    -455.964     327.493
  P     -422.542    -459.917     330.212
  C     -423.503    -460.459     332.522
  O     -422.422    -460.685     331.622
  O     -421.426    -460.195     329.257
  O     -423.935    -460.454     329.622
  H     -423.760    -461.191     329.007
  H     -423.335    -461.007     333.425
  H     -424.417    -460.785     332.071
  H     -423.569    -459.415     332.745

 6  7  8  9  10  11  12  13  14  15  16  26  30  31  32  33  35 0
 6-311+G(2d,p)
 ****
 37  38 0
 6-311+G(2d,p)
 ****
 1  2  3  4  5  17  18  19  20  21  22  23  24  25 0
 3-21G
 ****
 27  28  29  34  36  39  40  41  42  43  44  45  46 0
 3-21G
 ****


