%nproc=1
%NoSave
%Mem=1900MB
#P OB98/GEN NMR

erre ene a

0 1
  C      176.048     -63.657     327.145
  O      175.624     -64.977     327.421
  H      176.694     -63.674     326.263
  H      176.611     -63.243     327.985
  H      175.183     -63.023     326.930
  P      174.875     -65.254     328.814
  C      172.865     -64.165     327.611
  O      173.608     -64.264     328.825
  C      171.389     -63.875     327.896
  O      170.783     -64.998     328.571
  C      171.165     -62.688     328.819
  O      171.489     -61.440     328.245
  C      169.755     -62.937     329.336
  O      168.740     -62.425     328.477
  C      169.691     -64.483     329.359
  N      169.703     -65.010     330.716
  C      168.560     -64.769     331.471
  O      167.592     -64.133     331.054
  N      168.579     -65.249     332.752
  C      169.625     -65.887     333.350
  O      169.594     -66.256     334.518
  C      170.817     -66.090     332.512
  C      170.803     -65.650     331.252
  O      175.728     -65.158     330.043
  O      174.207     -66.692     328.607
  H      167.883     -62.581     328.921
  H      173.944     -67.090     329.471
  H      167.755     -65.093     333.310
  H      171.668     -66.590     332.955
  H      171.671     -65.787     330.612
  H      168.769     -64.830     328.873
  H      169.603     -62.482     330.317
  H      171.831     -62.801     329.684
  H      170.875     -63.735     326.939
  H      172.949     -65.124     327.090
  H      173.294     -63.382     326.979
  P      171.535     -60.076     329.077
  C      174.032     -60.271     329.768
  O      172.677     -60.213     330.201
  O      170.220     -59.478     329.461
  O      172.225     -59.080     328.011
  H      171.838     -58.194     328.146
  H      174.675     -60.361     330.619
  H      174.274     -59.377     329.231
  H      174.166     -61.118     329.128

 6  7  8  9  10  11  12  13  14  15  16  26  31  32  33  34  35 0
 6-311+G(2d,p)
 ****
 36  37 0
 6-311+G(2d,p)
 ****
 1  2  3  4  5  17  18  19  20  21  22  23  24  25 0
 3-21G
 ****
 27  28  29  30  38  39  40  41  42  43  44  45 0
 3-21G
 ****


