%nproc=1
%NoSave
%Mem=1900MB
#P OB98/GEN NMR

erre ene a

0 1
  C        2.486    -232.881      13.842
  O        1.710    -233.952      14.330
  P        2.269    -235.426      14.545
  C        2.755    -235.334      17.116
  O        3.278    -235.417      15.794
  C        3.149    -236.562      17.942
  O        2.854    -237.752      17.167
  C        4.661    -236.583      18.241
  O        4.983    -236.988      19.568
  C        5.219    -237.424      17.099
  O        6.499    -237.970      17.370
  C        4.093    -238.433      16.877
  N        4.886    -242.506      13.938
  C        4.844    -242.422      15.316
  N        5.257    -243.522      15.987
  N        4.483    -241.342      15.967
  C        4.215    -240.292      15.160
  C        4.217    -240.255      13.782
  C        4.583    -241.460      13.081
  O        4.742    -241.549      11.867
  N        3.959    -238.994      13.310
  C        3.839    -238.256      14.390
  N        4.019    -238.996      15.544
  O        2.680    -236.174      13.316
  O        0.974    -236.176      15.163
  H        6.753    -238.523      16.607
  H        0.999    -237.098      14.841
  H        5.251    -243.343      13.497
  H        3.656    -237.192      14.406
  H        4.179    -239.283      17.555
  H        5.329    -236.764      16.228
  H        5.672    -244.311      15.522
  H        5.076    -235.575      18.175
  H        5.474    -243.403      16.980
  H        2.544    -236.596      18.852
  H        1.666    -235.278      17.010
  H        3.091    -234.411      17.602
  P        6.343    -236.771      20.372
  C        6.439    -234.483      21.542
  O        6.698    -235.203      20.354
  O        7.482    -237.404      19.448
  O        6.371    -237.393      21.729
  H        8.136    -237.869      20.010
  H        6.464    -233.417      21.310
  H        7.206    -234.709      22.281
  H        5.450    -234.746      21.938
  H        1.883    -231.999      13.789
  H        2.853    -233.122      12.866
  H        3.311    -232.709      14.501

 3  4  5  6  7  8  9  10  11  12  23  26  30  31 0
 6-311+G(2d,p)
 ****
 33  35  36  37  38 0
 6-311+G(2d,p)
 ****
 1  2  13  14  15  16  17  18  19  20  21  22  24  25 0
 3-21G
 ****
 27  28  29  32  34  39  40  41  42  43  44  45  46  47  48  49 0
 3-21G
 ****


