%nproc=1
%NoSave
%Mem=1900MB
#P OB98/GEN NMR

erre ene a

0 1
  C      357.794      39.317      98.279
  O      357.850      37.920      98.072
  H      358.769      39.688      98.611
  H      357.536      39.805      97.335
  H      357.031      39.560      99.025
  P      358.252      37.017      99.338
  C      360.485      35.711      99.610
  O      359.855      36.948      99.310
  C      361.480      35.369      98.506
  O      360.777      34.940      97.318
  C      362.343      36.550      98.073
  O      363.451      36.757      98.933
  C      362.792      36.081      96.698
  O      363.833      35.098      96.835
  C      361.509      35.429      96.160
  N      358.853      36.102      91.835
  C      359.550      35.047      92.311
  N      360.213      34.939      93.481
  C      360.095      36.070      94.197
  C      359.413      37.223      93.846
  C      358.770      37.217      92.597
  N      358.089      38.301      92.094
  N      359.541      38.182      94.832
  C      360.270      37.609      95.768
  N      360.658      36.344      95.417
  O      357.821      35.538      98.902
  O      357.672      37.434     100.648
  H      363.483      34.390      97.409
  H      357.813      34.945      99.676
  H      359.583      34.175      91.664
  H      360.553      38.069      96.707
  H      361.714      34.572      95.508
  H      363.194      36.893      96.087
  H      361.749      37.464      97.962
  H      362.100      34.531      98.848
  H      359.722      34.926      99.671
  H      357.791      38.254      91.132
  H      358.144      39.181      92.585
  H      360.999      35.787     100.571
  P      364.019      38.255      99.060
  C      366.363      39.108      98.330
  O      365.188      38.389      97.967
  O      364.812      38.218     100.447
  O      362.975      39.320      99.031
  H      364.777      39.087     100.891
  H      367.047      39.113      97.507
  H      366.823      38.637      99.173
  H      366.102      40.114      98.583

 6  7  8  9  10  11  12  13  14  15  25  28  32  33  34  35 0
 6-311+G(2d,p)
 ****
 36  39  40 0
 6-311+G(2d,p)
 ****
 1  2  3  4  5  16  17  18  19  20  21  22  23  24 0
 3-21G
 ****
 26  27  29  30  31  37  38  41  42  43  44  45  46  47 0
 3-21G
 ****
 48 0
 3-21G
 ****


