%nproc=1
%NoSave
%Mem=1900MB
#P OB98/GEN NMR

erre ene a

0 1
  C     -458.039     527.875    -233.079
  O     -458.254     526.710    -232.294
  P     -457.102     525.599    -232.151
  C     -456.359     523.509    -233.457
  O     -457.318     524.565    -233.363
  C     -456.949     522.314    -234.212
  O     -457.928     521.663    -233.362
  C     -457.659     522.711    -235.508
  O     -457.436     521.680    -236.479
  C     -459.134     522.707    -235.139
  O     -459.957     522.461    -236.293
  C     -459.184     521.622    -234.067
  N     -464.269     521.545    -233.333
  C     -463.509     521.258    -234.413
  N     -462.170     521.323    -234.547
  C     -461.597     521.683    -233.386
  C     -462.235     521.995    -232.196
  C     -463.639     521.919    -232.192
  N     -464.407     522.197    -231.082
  N     -461.315     522.340    -231.230
  C     -460.143     522.223    -231.812
  N     -460.260     521.813    -233.116
  O     -457.002     524.968    -230.806
  O     -455.759     526.357    -232.556
  H     -459.990     523.296    -236.806
  H     -455.014     526.063    -231.990
  H     -464.061     520.946    -235.297
  H     -459.191     522.419    -231.348
  H     -459.285     520.619    -234.508
  H     -459.415     523.688    -234.735
  H     -457.328     523.681    -235.902
  H     -456.148     521.597    -234.410
  H     -456.088     523.198    -232.442
  H     -465.388     521.997    -231.138
  H     -463.933     522.312    -230.189
  H     -455.456     523.877    -233.956
  P     -457.811     522.073    -237.999
  C     -460.084     522.493    -239.219
  O     -459.411     522.201    -238.003
  O     -457.196     521.130    -238.985
  O     -457.271     523.574    -238.082
  H     -457.231     523.994    -237.192
  H     -461.152     522.576    -239.006
  H     -459.923     521.688    -239.946
  H     -459.719     523.438    -239.633
  H     -458.914     528.490    -233.052
  H     -457.834     527.591    -234.090
  H     -457.207     528.421    -232.686

 3  4  5  6  7  8  9  10  11  12  22  25  29  30  31  32 0
 6-311+G(2d,p)
 ****
 33  36  37 0
 6-311+G(2d,p)
 ****
 1  2  13  14  15  16  17  18  19  20  21  23  24  26 0
 3-21G
 ****
 27  28  34  35  38  39  40  41  42  43  44  45  46  47  48 0
 3-21G
 ****


