%nproc=1
%NoSave
%Mem=1900MB
#P OB98/GEN NMR

erre ene a

0 1
  C     -289.524      60.343     118.702
  O     -288.842      61.244     119.551
  H     -289.765      59.440     119.270
  H     -288.890      60.067     117.855
  H     -290.452      60.793     118.343
  P     -288.342      62.619     118.893
  C     -290.741      63.449     118.345
  O     -289.470      63.063     117.843
  C     -291.585      64.022     117.213
  O     -292.853      64.487     117.731
  C     -290.963      65.229     116.523
  O     -289.951      64.860     115.604
  C     -292.182      65.834     115.846
  O     -292.456      65.197     114.588
  C     -293.305      65.549     116.867
  N     -293.681      66.742     117.619
  C     -294.204      67.789     116.867
  O     -294.347      67.735     115.645
  N     -294.521      68.924     117.561
  C     -294.337      69.122     118.898
  O     -294.575      70.189     119.447
  C     -293.793      67.975     119.645
  C     -293.486      66.858     118.980
  O     -287.120      62.154     117.968
  O     -287.941      63.675     119.867
  H     -286.274      62.372     118.402
  H     -292.684      64.269     114.797
  H     -294.891      69.698     117.031
  H     -293.640      68.096     120.710
  H     -293.066      66.006     119.507
  H     -294.201      65.178     116.355
  H     -292.041      66.894     115.639
  H     -290.584      65.938     117.269
  H     -291.783      63.222     116.487
  H     -290.611      64.214     119.117
  H     -291.228      62.576     118.792
  P     -288.928      65.987     115.098
  C     -286.998      65.554     116.829
  O     -288.039      66.398     116.371
  O     -289.911      67.229     114.895
  O     -288.149      65.594     113.891
  H     -290.626      67.260     115.552
  H     -286.527      65.999     117.681
  H     -286.276      65.423     116.050
  H     -287.404      64.603     117.103

 6  7  8  9  10  11  12  13  14  15  16  27  31  32  33  34  35 0
 6-311+G(2d,p)
 ****
 36  37 0
 6-311+G(2d,p)
 ****
 1  2  3  4  5  17  18  19  20  21  22  23  24  25 0
 3-21G
 ****
 26  28  29  30  38  39  40  41  42  43  44  45 0
 3-21G
 ****


