%nproc=1
%NoSave
%Mem=1900MB
#P OB98/GEN NMR

erre ene a

0 1
  C     -235.198     -93.726    -261.524
  O     -235.488     -92.419    -261.967
  H     -234.950     -94.343    -262.393
  H     -236.076     -94.151    -261.030
  H     -234.349     -93.735    -260.834
  P     -235.449     -91.221    -260.907
  C     -237.793     -91.777    -259.979
  O     -236.411     -91.618    -259.683
  C     -238.457     -90.450    -260.345
  O     -239.873     -90.643    -260.567
  C     -238.343     -89.415    -259.225
  O     -237.132     -88.680    -259.199
  C     -239.530     -88.502    -259.519
  O     -239.180     -87.501    -260.486
  C     -240.565     -89.472    -260.098
  N     -244.491     -87.981    -257.183
  C     -243.656     -87.217    -257.976
  N     -243.860     -85.879    -257.942
  N     -242.704     -87.720    -258.716
  C     -242.559     -89.059    -258.577
  C     -243.313     -89.922    -257.811
  C     -244.401     -89.359    -257.036
  O     -245.163     -89.992    -256.311
  N     -242.869     -91.218    -257.925
  C     -241.803     -91.127    -258.697
  N     -241.589     -89.841    -259.138
  O     -236.277     -90.050    -261.630
  O     -234.080     -90.750    -260.521
  H     -238.788     -87.945    -261.260
  H     -235.983     -89.183    -261.299
  H     -245.225     -87.542    -256.654
  H     -241.171     -91.960    -258.985
  H     -241.080     -89.038    -260.966
  H     -239.865     -87.974    -258.623
  H     -244.501     -85.439    -257.301
  H     -238.506     -89.889    -258.249
  H     -243.114     -85.275    -258.292
  H     -238.029     -90.079    -261.284
  H     -238.261     -92.195    -259.083
  H     -237.926     -92.507    -260.784
  P     -236.675     -87.933    -257.858
  C     -236.106     -85.859    -259.325
  O     -236.721     -86.360    -258.159
  O     -235.110     -88.263    -257.785
  O     -237.393     -88.363    -256.624
  H     -234.951     -89.027    -257.197
  H     -236.232     -84.797    -259.367
  H     -236.557     -86.306    -260.186
  H     -235.062     -86.094    -259.307

 6  7  8  9  10  11  12  13  14  15  26  29  33  34 0
 6-311+G(2d,p)
 ****
 36  38  39  40  41 0
 6-311+G(2d,p)
 ****
 1  2  3  4  5  16  17  18  19  20  21  22  23  24  25 0
 3-21G
 ****
 27  28  30  31  32  35  37  42  43  44  45  46  47 0
 3-21G
 ****
 48  49 0
 3-21G
 ****


