%nproc=1
%NoSave
%Mem=1900MB
#P OB98/GEN NMR

erre ene a

0 1
  C      -33.584    -404.246    -305.350
  O      -32.538    -404.647    -304.488
  H      -33.659    -404.973    -306.163
  H      -33.370    -403.265    -305.778
  H      -34.537    -404.222    -304.815
  P      -32.218    -403.739    -303.203
  C      -29.754    -403.670    -304.011
  O      -30.897    -402.920    -303.621
  C      -29.108    -403.043    -305.244
  O      -29.985    -403.114    -306.391
  C      -28.777    -401.560    -305.110
  O      -27.658    -401.295    -304.281
  C      -28.511    -401.220    -306.565
  O      -27.218    -401.722    -306.952
  C      -29.649    -402.002    -307.265
  N      -30.828    -401.174    -307.518
  C      -30.760    -400.306    -308.614
  O      -29.748    -400.249    -309.309
  N      -31.836    -399.490    -308.876
  C      -32.878    -399.520    -308.104
  N      -33.909    -398.688    -308.406
  C      -32.981    -400.405    -306.925
  C      -31.935    -401.197    -306.697
  O      -32.140    -404.458    -301.894
  O      -33.331    -402.588    -303.235
  H      -26.570    -401.021    -306.749
  H      -33.184    -402.004    -302.452
  H      -33.856    -400.373    -306.293
  H      -31.933    -401.871    -305.846
  H      -29.305    -402.428    -308.216
  H      -28.515    -400.145    -306.767
  H      -29.654    -400.993    -304.776
  H      -28.214    -403.635    -305.482
  H      -33.807    -398.092    -309.220
  H      -30.075    -404.697    -304.216
  H      -34.724    -398.591    -307.817
  H      -29.019    -403.681    -303.202
  P      -27.936    -400.489    -302.919
  C      -26.343    -398.611    -303.775
  O      -27.604    -398.954    -303.228
  O      -26.751    -400.966    -301.967
  O      -29.291    -400.714    -302.313
  H      -27.052    -401.670    -301.359
  H      -26.292    -397.552    -303.917
  H      -26.217    -399.103    -304.717
  H      -25.568    -398.919    -303.105

 6  7  8  9  10  11  12  13  14  15  16  26  30  31  32  33  35 0
 6-311+G(2d,p)
 ****
 37  38 0
 6-311+G(2d,p)
 ****
 1  2  3  4  5  17  18  19  20  21  22  23  24  25 0
 3-21G
 ****
 27  28  29  34  36  39  40  41  42  43  44  45  46 0
 3-21G
 ****


