%nproc=1
%NoSave
%Mem=1900MB
#P OB98/GEN NMR

erre ene a

0 1
  C      -39.046    -899.438    -295.057
  O      -37.618    -899.409    -294.914
  P      -36.981    -900.095    -293.609
  C      -37.587    -898.035    -292.121
  O      -36.575    -898.934    -292.576
  C      -36.989    -897.010    -291.159
  O      -36.576    -897.602    -289.920
  C      -35.755    -896.307    -291.698
  O      -36.097    -895.238    -292.577
  C      -35.140    -895.756    -290.424
  O      -35.821    -894.551    -290.026
  C      -35.425    -896.885    -289.426
  N      -31.447    -898.194    -286.475
  C      -32.344    -897.187    -286.380
  N      -33.364    -896.893    -287.212
  C      -33.419    -897.781    -288.226
  C      -32.575    -898.848    -288.448
  C      -31.550    -899.050    -287.515
  N      -30.637    -900.083    -287.613
  N      -32.941    -899.531    -289.593
  C      -33.998    -898.887    -290.045
  N      -34.319    -897.810    -289.257
  O      -35.569    -900.625    -294.133
  O      -37.813    -901.199    -293.043
  H      -36.769    -894.760    -289.985
  H      -35.341    -901.461    -293.675
  H      -32.224    -896.527    -285.525
  H      -34.558    -899.153    -290.927
  H      -35.681    -896.499    -288.430
  H      -34.083    -895.500    -290.542
  H      -35.069    -897.021    -292.179
  H      -37.764    -896.260    -290.936
  H      -38.386    -898.591    -291.627
  H      -29.944    -900.178    -286.886
  H      -30.721    -900.740    -288.375
  H      -38.045    -897.551    -292.990
  P      -36.351    -895.608    -294.122
  C      -33.951    -894.757    -294.657
  O      -35.332    -894.684    -294.952
  O      -37.787    -894.968    -294.414
  O      -36.305    -897.068    -294.418
  H      -38.254    -895.486    -295.102
  H      -33.394    -894.317    -295.492
  H      -33.630    -895.789    -294.532
  H      -33.736    -894.182    -293.753
  H      -39.323    -898.947    -295.966
  H      -39.498    -898.935    -294.228
  H      -39.381    -900.454    -295.083

 3  4  5  6  7  8  9  10  11  12  22  25  29  30  31  32 0
 6-311+G(2d,p)
 ****
 33  36  37 0
 6-311+G(2d,p)
 ****
 1  2  13  14  15  16  17  18  19  20  21  23  24  26 0
 3-21G
 ****
 27  28  34  35  38  39  40  41  42  43  44  45  46  47  48 0
 3-21G
 ****


