%nproc=1
%NoSave
%Mem=1900MB
#P OB98/GEN NMR

erre ene a

0 1
  C     -368.780    -875.410    -429.333
  O     -369.834    -875.431    -430.292
  P     -370.666    -876.789    -430.468
  C     -372.879    -875.406    -430.826
  O     -371.964    -876.405    -431.308
  C     -373.847    -874.998    -431.948
  O     -373.104    -874.408    -433.037
  C     -374.635    -876.128    -432.546
  O     -375.714    -876.530    -431.729
  C     -375.064    -875.508    -433.894
  O     -376.202    -874.653    -433.700
  C     -373.833    -874.677    -434.268
  N     -372.952    -875.325    -435.250
  C     -373.279    -875.142    -436.583
  O     -374.236    -874.452    -436.952
  N     -372.491    -875.788    -437.506
  C     -371.437    -876.634    -437.198
  O     -370.783    -877.208    -438.063
  C     -371.168    -876.836    -435.783
  C     -371.937    -876.189    -434.876
  O     -371.176    -877.012    -428.975
  O     -369.828    -877.894    -431.036
  H     -371.267    -876.176    -428.492
  H     -376.465    -874.322    -434.592
  H     -372.678    -875.631    -438.485
  H     -370.365    -877.500    -435.511
  H     -371.744    -876.326    -433.817
  H     -374.126    -873.712    -434.661
  H     -375.351    -876.265    -434.635
  H     -373.994    -876.993    -432.751
  H     -374.513    -874.207    -431.554
  H     -372.327    -874.547    -430.493
  H     -373.437    -875.831    -429.977
  P     -376.450    -877.923    -432.115
  C     -377.306    -878.037    -429.643
  O     -377.600    -878.147    -431.019
  O     -375.318    -878.996    -431.756
  O     -376.924    -877.965    -433.547
  H     -374.883    -878.804    -430.910
  H     -378.224    -877.877    -429.089
  H     -376.619    -877.181    -429.457
  H     -376.840    -878.964    -429.298
  H     -368.320    -874.444    -429.329
  H     -368.051    -876.151    -429.588
  H     -369.177    -875.620    -428.362

 3  4  5  6  7  8  9  10  11  12  13  24  28  29  30  31  32 0
 6-311+G(2d,p)
 ****
 33  34 0
 6-311+G(2d,p)
 ****
 1  2  14  15  16  17  18  19  20  21  22  23  25  26  27 0
 3-21G
 ****
 35  36  37  38  39  40  41  42  43  44  45 0
 3-21G
 ****


