%nproc=1
%NoSave
%Mem=1900MB
#P OB98/GEN NMR

erre ene a

0 1
  C     -209.109    -851.879      92.092
  O     -210.361    -851.222      91.969
  P     -211.235    -851.533      90.656
  C     -210.495    -851.812      88.177
  O     -210.315    -851.126      89.417
  C     -209.256    -851.683      87.301
  O     -208.148    -852.363      87.911
  C     -209.409    -852.293      85.916
  O     -210.164    -851.430      85.080
  C     -207.955    -852.446      85.498
  O     -207.456    -851.234      84.891
  C     -207.241    -852.731      86.837
  N     -206.803    -854.109      86.953
  C     -205.526    -854.385      86.445
  O     -204.869    -853.493      85.912
  N     -205.060    -855.674      86.510
  C     -205.802    -856.604      87.034
  N     -205.283    -857.859      87.080
  C     -207.153    -856.360      87.570
  C     -207.592    -855.103      87.495
  O     -212.346    -850.385      90.686
  O     -211.821    -852.903      90.609
  H     -206.571    -851.465      84.550
  H     -213.159    -850.681      90.218
  H     -207.726    -857.163      87.997
  H     -208.577    -854.831      87.855
  H     -206.366    -852.082      86.953
  H     -207.826    -853.240      84.758
  H     -209.889    -853.274      85.981
  H     -208.997    -850.609      87.233
  H     -204.352    -858.001      86.699
  H     -211.350    -851.375      87.648
  H     -205.769    -858.649      87.489
  H     -210.716    -852.867      88.393
  P     -210.620    -851.996      83.655
  C     -209.376    -853.833      82.383
  O     -209.281    -852.567      82.990
  O     -210.867    -850.648      82.818
  O     -211.810    -852.899      83.629
  H     -211.243    -850.862      81.948
  H     -208.450    -854.041      81.835
  H     -210.213    -853.862      81.673
  H     -209.509    -854.612      83.145
  H     -208.638    -851.582      93.006
  H     -208.484    -851.612      91.266
  H     -209.261    -852.938      92.097

 3  4  5  6  7  8  9  10  11  12  13  21  23  27  28  29  30  32 0
 6-311+G(2d,p)
 ****
 34  35 0
 6-311+G(2d,p)
 ****
 1  2  14  15  16  17  18  19  20  22  24  25  26 0
 3-21G
 ****
 31  33  36  37  38  39  40  41  42  43  44  45  46 0
 3-21G
 ****


