%nproc=1
%NoSave
%Mem=1900MB
#P OB98/GEN NMR

erre ene a

0 1
  C      116.298     708.790    -622.756
  O      116.205     707.796    -623.765
  H      117.274     709.278    -622.840
  H      116.226     708.327    -621.770
  H      115.515     709.542    -622.881
  P      114.803     707.065    -623.998
  C      114.771     707.472    -626.549
  O      114.812     706.507    -625.502
  C      115.242     706.840    -627.863
  O      116.665     706.618    -627.826
  C      114.619     705.474    -628.150
  O      113.280     705.613    -628.596
  C      115.593     704.935    -629.187
  O      115.317     705.488    -630.486
  C      116.944     705.457    -628.645
  N      117.687     704.452    -627.886
  C      118.164     703.359    -628.608
  O      117.954     703.207    -629.821
  N      118.889     702.441    -627.894
  C      119.092     702.448    -626.548
  O      119.699     701.568    -625.945
  C      118.542     703.610    -625.824
  C      117.873     704.544    -626.520
  O      113.581     707.853    -623.634
  O      114.921     705.726    -623.121
  H      114.522     705.031    -630.818
  H      114.446     705.847    -622.279
  H      119.224     701.632    -628.398
  H      118.679     703.656    -624.752
  H      117.450     705.404    -626.004
  H      117.575     705.812    -629.472
  H      115.541     703.854    -629.284
  H      114.669     704.834    -627.257
  H      115.029     707.545    -628.673
  H      115.430     708.307    -626.292
  H      113.748     707.849    -626.641
  P      112.090     704.840    -627.854
  C      110.199     706.565    -628.059
  O      110.709     705.331    -628.532
  O      112.110     704.911    -626.366
  O      112.227     703.338    -628.369
  H      112.593     702.770    -627.646
  H      109.288     706.794    -628.571
  H      110.915     707.340    -628.240
  H      110.009     706.493    -627.008

 6  7  8  9  10  11  12  13  14  15  16  26  31  32  33  34  35 0
 6-311+G(2d,p)
 ****
 36  37 0
 6-311+G(2d,p)
 ****
 1  2  3  4  5  17  18  19  20  21  22  23  24  25 0
 3-21G
 ****
 27  28  29  30  38  39  40  41  42  43  44  45 0
 3-21G
 ****


