%nproc=1
%NoSave
%Mem=1900MB
#P OB98/GEN NMR

erre ene a

0 1
  C       32.680     844.035     153.741
  O       31.979     843.100     152.949
  H       32.974     843.547     154.675
  H       32.032     844.877     153.979
  H       33.581     844.387     153.235
  P       31.687     843.452     151.410
  C       33.949     842.284     151.006
  O       33.093     843.358     150.646
  C       35.174     842.227     150.093
  O       34.744     841.857     148.747
  C       35.927     843.558     149.978
  O       37.306     843.258     149.754
  C       35.315     844.157     148.725
  O       36.116     845.190     148.192
  C       35.170     842.905     147.853
  N       34.235     843.097     146.746
  C       34.788     843.355     145.497
  O       36.007     843.460     145.316
  N       33.906     843.547     144.475
  C       32.544     843.555     144.580
  O       31.805     843.762     143.631
  C       32.009     843.314     145.935
  C       32.870     843.101     146.937
  O       30.930     844.718     151.173
  O       30.899     842.176     150.852
  H       37.036     844.868     148.051
  H       30.288     842.440     150.143
  H       34.299     843.728     143.558
  H       30.940     843.332     146.059
  H       32.506     842.918     147.944
  H       36.136     842.610     147.430
  H       34.333     844.589     148.945
  H       35.810     844.198     150.848
  H       35.840     841.423     150.442
  H       33.375     841.352     150.921
  H       34.272     842.404     152.044
  P       38.419     843.427     150.904
  C       39.122     840.951     150.799
  O       38.647     842.015     151.619
  O       38.158     844.563     151.841
  O       39.797     843.657     150.109
  H       40.402     844.195     150.653
  H       39.233     840.067     151.391
  H       40.069     841.220     150.379
  H       38.421     840.768     150.011

 6  7  8  9  10  11  12  13  14  15  16  26  31  32  33  34  35 0
 6-311+G(2d,p)
 ****
 36  37 0
 6-311+G(2d,p)
 ****
 1  2  3  4  5  17  18  19  20  21  22  23  24  25 0
 3-21G
 ****
 27  28  29  30  38  39  40  41  42  43  44  45 0
 3-21G
 ****


