%nproc=1
%NoSave
%Mem=1900MB
#P OB98/GEN NMR

erre ene a

0 1
  C      507.113     483.594     190.572
  O      507.225     483.759     191.990
  P      508.140     482.752     192.826
  C      506.663     482.411     194.912
  O      507.863     482.966     194.394
  C      506.440     482.851     196.371
  O      507.191     481.992     197.267
  C      506.880     484.300     196.633
  O      505.877     485.083     197.280
  C      508.185     484.147     197.390
  O      508.505     485.280     198.182
  C      507.997     482.819     198.131
  N      509.273     482.190     198.474
  C      510.025     482.806     199.464
  O      509.699     483.873     199.993
  N      511.205     482.193     199.794
  C      511.729     481.091     199.188
  O      512.813     480.607     199.481
  C      510.915     480.517     198.098
  C      509.747     481.087     197.794
  O      509.581     482.713     192.441
  O      507.449     481.324     192.557
  H      507.697     485.547     198.684
  H      508.158     480.660     192.465
  H      511.757     482.615     200.528
  H      511.314     479.655     197.571
  H      509.137     480.694     196.996
  H      507.442     482.969     199.066
  H      508.997     484.025     196.655
  H      507.066     484.835     195.692
  H      505.377     482.732     196.589
  H      506.726     481.324     194.880
  H      505.821     482.692     194.268
  P      505.269     486.450     196.702
  C      505.866     487.989     198.702
  O      504.848     487.375     197.936
  O      504.231     486.299     195.639
  O      506.564     487.191     196.109
  H      506.333     487.621     195.268
  H      505.459     488.257     199.675
  H      506.198     488.901     198.192
  H      506.708     487.322     198.846
  H      506.466     484.348     190.175
  H      506.708     482.627     190.356
  H      508.081     483.683     190.125

 3  4  5  6  7  8  9  10  11  12  13  23  28  29  30  31  32 0
 6-311+G(2d,p)
 ****
 33  34 0
 6-311+G(2d,p)
 ****
 1  2  14  15  16  17  18  19  20  21  22  24  25  26  27 0
 3-21G
 ****
 35  36  37  38  39  40  41  42  43  44  45 0
 3-21G
 ****


