%nproc=1
%NoSave
%Mem=1900MB
#P OB98/GEN NMR

erre ene a

0 1
  C      -78.586    -216.539    -334.073
  O      -79.013    -215.239    -333.721
  H      -79.204    -216.902    -334.895
  H      -78.704    -217.212    -333.220
  H      -77.540    -216.527    -334.395
  P      -78.097    -214.416    -332.694
  C      -76.015    -214.206    -334.238
  O      -77.087    -213.540    -333.585
  C      -74.816    -213.265    -334.360
  O      -73.658    -214.046    -334.776
  C      -75.004    -212.142    -335.388
  O      -74.352    -210.966    -334.898
  C      -74.251    -212.657    -336.601
  O      -73.826    -211.635    -337.493
  C      -73.087    -213.392    -335.928
  N      -72.444    -214.359    -336.816
  C      -71.909    -213.876    -338.006
  O      -71.862    -212.689    -338.325
  N      -71.408    -214.831    -338.857
  C      -71.409    -216.177    -338.649
  O      -70.961    -216.980    -339.459
  C      -71.996    -216.626    -337.377
  C      -72.480    -215.711    -336.534
  O      -77.154    -215.547    -332.067
  O      -78.835    -213.643    -331.651
  H      -77.568    -215.935    -331.274
  H      -73.342    -212.067    -338.223
  H      -71.017    -214.496    -339.724
  H      -72.026    -217.689    -337.184
  H      -72.940    -216.009    -335.598
  H      -72.344    -212.675    -335.564
  H      -74.882    -213.356    -337.163
  H      -76.050    -211.917    -335.621
  H      -74.587    -212.856    -333.369
  H      -76.332    -214.507    -335.240
  H      -75.744    -215.099    -333.667
  P      -75.281    -209.819    -334.264
  C      -75.796    -210.845    -331.907
  O      -75.056    -209.911    -332.678
  O      -76.738    -210.439    -334.495
  O      -75.058    -208.479    -334.877
  H      -76.757    -211.409    -334.408
  H      -75.513    -210.762    -330.878
  H      -75.591    -211.836    -332.254
  H      -76.842    -210.641    -332.007

 6  7  8  9  10  11  12  13  14  15  16  27  31  32  33  34  35 0
 6-311+G(2d,p)
 ****
 36  37 0
 6-311+G(2d,p)
 ****
 1  2  3  4  5  17  18  19  20  21  22  23  24  25 0
 3-21G
 ****
 26  28  29  30  38  39  40  41  42  43  44  45 0
 3-21G
 ****


