%nproc=1
%NoSave
%Mem=1900MB
#P OB98/GEN NMR

erre ene a

0 1
  C     -132.630     -26.191     104.711
  O     -133.782     -25.379     104.811
  H     -131.872     -25.803     105.397
  H     -132.231     -26.150     103.694
  H     -132.855     -27.224     104.984
  P     -135.103     -25.806     104.012
  C     -136.166     -27.894     105.094
  O     -136.107     -26.475     105.074
  C     -136.655     -28.397     106.456
  O     -135.607     -28.180     107.435
  C     -137.917     -27.688     106.958
  O     -138.746     -28.631     107.637
  C     -137.380     -26.669     107.945
  O     -138.343     -26.316     108.935
  C     -136.159     -27.392     108.509
  N     -135.140     -24.097     112.202
  C     -136.213     -24.950     112.040
  N     -137.170     -24.909     112.993
  N     -136.342     -25.771     111.031
  C     -135.301     -25.721     110.165
  C     -134.182     -24.922     110.214
  C     -134.063     -24.003     111.326
  O     -133.144     -23.213     111.513
  N     -133.359     -25.151     109.138
  C     -133.980     -26.085     108.442
  N     -135.167     -26.456     109.016
  O     -134.861     -26.625     102.783
  O     -135.818     -24.421     103.661
  H     -137.915     -25.662     109.529
  H     -135.706     -24.198     102.719
  H     -135.097     -23.478     112.992
  H     -133.619     -26.520     107.520
  H     -136.415     -28.064     109.336
  H     -137.086     -25.756     107.411
  H     -137.123     -24.319     113.810
  H     -138.479     -27.223     106.148
  H     -137.953     -25.546     112.916
  H     -136.813     -29.480     106.391
  H     -135.162     -28.283     104.898
  H     -136.840     -28.239     104.302
  P     -139.942     -29.339     106.835
  C     -138.669     -31.333     105.830
  O     -139.655     -30.918     106.764
  O     -140.300     -28.707     105.530
  O     -141.165     -29.251     107.869
  H     -141.995     -29.127     107.367
  H     -138.564     -32.397     105.871
  H     -137.733     -30.873     106.071
  H     -138.966     -31.042     104.844

 6  7  8  9  10  11  12  13  14  15  26  29  33  34 0
 6-311+G(2d,p)
 ****
 36  38  39  40  41 0
 6-311+G(2d,p)
 ****
 1  2  3  4  5  16  17  18  19  20  21  22  23  24  25 0
 3-21G
 ****
 27  28  30  31  32  35  37  42  43  44  45  46  47 0
 3-21G
 ****
 48  49 0
 3-21G
 ****


