%nproc=1
%NoSave
%Mem=1900MB
#P OB98/GEN NMR

erre ene a

0 1
  C     -435.847    -672.658    -689.090
  O     -434.519    -672.538    -689.559
  P     -433.861    -671.102    -689.832
  C     -431.919    -671.028    -688.154
  O     -433.234    -670.577    -688.451
  C     -431.300    -670.217    -687.022
  O     -431.189    -668.828    -687.422
  C     -432.091    -670.270    -685.708
  O     -431.129    -670.316    -684.635
  C     -432.837    -668.949    -685.697
  O     -433.226    -668.559    -684.398
  C     -431.804    -668.043    -686.380
  N     -432.402    -666.830    -686.919
  C     -432.267    -665.668    -686.165
  O     -431.769    -665.715    -685.032
  N     -432.700    -664.483    -686.696
  C     -433.397    -664.489    -687.800
  N     -433.752    -663.293    -688.324
  C     -433.776    -665.737    -688.496
  C     -433.221    -666.855    -688.027
  O     -434.745    -670.122    -690.522
  O     -432.564    -671.429    -690.711
  H     -432.588    -670.883    -691.527
  H     -433.952    -669.151    -684.094
  H     -434.456    -665.705    -689.331
  H     -433.426    -667.818    -688.493
  H     -431.016    -667.757    -685.669
  H     -433.738    -669.041    -686.312
  H     -432.738    -671.143    -685.639
  H     -430.275    -670.585    -686.863
  H     -433.438    -662.459    -687.847
  H     -431.309    -670.905    -689.059
  H     -433.994    -663.185    -689.309
  H     -431.937    -672.095    -687.905
  P     -431.243    -671.509    -683.568
  C     -430.124    -673.491    -684.808
  O     -431.321    -672.888    -684.372
  O     -432.748    -671.332    -683.040
  O     -430.302    -671.453    -682.413
  H     -432.821    -671.705    -682.140
  H     -430.375    -674.376    -685.395
  H     -429.517    -673.795    -683.955
  H     -429.562    -672.806    -685.448
  H     -436.092    -673.693    -688.974
  H     -436.516    -672.210    -689.795
  H     -435.938    -672.162    -688.147

 3  4  5  6  7  8  9  10  11  12  13  24  27  28  29  30  32 0
 6-311+G(2d,p)
 ****
 34  35 0
 6-311+G(2d,p)
 ****
 1  2  14  15  16  17  18  19  20  21  22  23  25  26 0
 3-21G
 ****
 31  33  36  37  38  39  40  41  42  43  44  45  46 0
 3-21G
 ****


