%nproc=1
%NoSave
%Mem=1900MB
#P OB98/GEN NMR

erre ene a

0 1
  C      550.773      -3.834    -383.074
  O      549.404      -3.444    -383.143
  P      548.293      -4.430    -382.543
  C      547.391      -2.699    -380.754
  O      547.909      -3.980    -381.061
  C      546.541      -2.791    -379.478
  O      545.405      -3.664    -379.691
  C      547.308      -3.344    -378.279
  O      548.003      -2.331    -377.581
  C      546.200      -3.986    -377.467
  O      545.460      -2.983    -376.745
  C      545.326      -4.605    -378.584
  N      545.679      -5.953    -379.079
  C      545.525      -7.060    -378.251
  O      545.106      -7.008    -377.095
  N      545.861      -8.274    -378.794
  C      546.164      -8.514    -380.102
  O      546.397      -9.629    -380.553
  C      546.167      -7.334    -380.974
  C      545.942      -6.131    -380.434
  O      549.086      -5.806    -382.331
  O      547.090      -4.608    -383.412
  H      544.679      -3.420    -376.365
  H      548.721      -6.503    -382.906
  H      545.821      -9.079    -378.189
  H      546.356      -7.482    -382.030
  H      545.947      -5.250    -381.071
  H      544.276      -4.651    -378.269
  H      546.604      -4.665    -376.715
  H      547.990      -4.139    -378.601
  H      546.156      -1.792    -379.243
  H      546.784      -2.317    -381.579
  H      548.213      -1.995    -380.611
  P      549.601      -2.397    -377.450
  C      549.611      -0.040    -378.455
  O      550.166      -1.339    -378.516
  O      550.207      -3.762    -377.520
  O      549.897      -1.676    -376.054
  H      549.992      -2.338    -375.334
  H      550.185       0.624    -379.113
  H      549.661       0.352    -377.434
  H      548.574      -0.057    -378.796
  H      551.383      -3.073    -383.514
  H      550.909      -4.752    -383.606
  H      551.054      -3.969    -382.051

 3  4  5  6  7  8  9  10  11  12  13  23  28  29  30  31  32 0
 6-311+G(2d,p)
 ****
 33  34 0
 6-311+G(2d,p)
 ****
 1  2  14  15  16  17  18  19  20  21  22  24  25  26  27 0
 3-21G
 ****
 35  36  37  38  39  40  41  42  43  44  45 0
 3-21G
 ****


