%nproc=1
%NoSave
%Mem=1900MB
#P OB98/GEN NMR

erre ene a

0 1
  C      587.811     223.304    -524.714
  O      588.197     224.080    -523.573
  P      587.076     224.213    -522.412
  C      586.518     226.739    -522.813
  O      586.052     225.383    -522.844
  C      585.356     227.719    -522.783
  O      585.896     229.088    -522.719
  C      584.431     227.678    -524.012
  O      583.076     227.920    -523.573
  C      584.862     228.870    -524.843
  O      583.822     229.314    -525.725
  C      585.218     229.863    -523.717
  N      585.343     234.324    -526.127
  C      584.261     233.550    -525.748
  N      583.031     234.018    -526.072
  N      584.362     232.413    -525.100
  C      585.649     232.075    -524.822
  C      586.819     232.757    -525.130
  C      586.667     233.999    -525.893
  O      587.597     234.684    -526.307
  N      587.926     232.099    -524.680
  C      587.443     231.008    -524.089
  N      586.071     230.953    -524.155
  O      587.906     224.860    -521.182
  O      586.452     222.932    -522.022
  H      584.145     230.148    -526.142
  H      587.834     224.284    -520.399
  H      585.201     235.182    -526.641
  H      588.037     230.245    -523.637
  H      584.318     230.306    -523.273
  H      585.734     228.602    -525.437
  H      582.881     234.938    -526.505
  H      584.465     226.741    -524.563
  H      582.228     233.512    -525.764
  H      584.789     227.571    -521.858
  H      587.136     226.918    -523.697
  H      587.156     226.856    -521.924
  P      582.042     226.677    -523.673
  C      581.133     227.435    -525.987
  O      581.821     226.439    -525.261
  O      580.658     227.309    -523.189
  O      582.449     225.475    -522.879
  H      580.087     226.609    -522.809
  H      581.009     228.372    -525.454
  H      580.151     227.057    -526.286
  H      581.711     227.646    -526.907
  H      588.617     223.279    -525.417
  H      586.952     223.747    -525.172
  H      587.576     222.307    -524.404

 3  4  5  6  7  8  9  10  11  12  23  26  30  31  33  0
 6-311+G(2d,p)
 ****
 35  36  37  38 0
 6-311+G(2d,p)
 ****
 1  2  13  14  15  16  17  18  19  20  21  22  24  25  27  28  29 0
 3-21G
 ****
 32  34  39  40  41  42  43  44  45  46  47  48  49 0
 3-21G
 ****


