%nproc=1
%NoSave
%Mem=1900MB
#P OB98/GEN NMR

erre ene a

0 1
  C     -411.406    -273.365     227.506
  O     -411.047    -272.866     226.234
  H     -410.495    -273.520     228.088
  H     -411.918    -274.325     227.395
  H     -412.050    -272.664     228.038
  P     -412.193    -272.253     225.296
  C     -412.147    -269.753     225.943
  O     -412.818    -270.996     226.074
  C     -413.140    -268.629     225.613
  O     -414.081    -268.503     226.708
  C     -412.430    -267.276     225.475
  O     -413.125    -266.394     224.598
  C     -412.492    -266.719     226.889
  O     -412.373    -265.298     226.936
  C     -413.847    -267.241     227.361
  N     -416.389    -266.147     231.643
  C     -416.529    -265.601     230.380
  N     -417.474    -264.641     230.242
  N     -415.794    -265.952     229.357
  C     -414.844    -266.867     229.657
  C     -414.594    -267.461     230.873
  C     -415.436    -267.093     231.993
  O     -415.337    -267.529     233.136
  N     -413.540    -268.338     230.794
  C     -413.153    -268.270     229.533
  N     -413.929    -267.411     228.800
  O     -413.372    -273.336     225.381
  O     -411.791    -271.987     223.876
  H     -411.563    -265.056     226.447
  H     -413.958    -273.257     224.610
  H     -416.997    -265.862     232.387
  H     -412.329    -268.831     229.107
  H     -414.651    -266.557     227.064
  H     -411.653    -267.134     227.457
  H     -417.916    -264.214     231.041
  H     -411.400    -267.374     225.138
  H     -417.377    -264.026     229.429
  H     -413.721    -268.892     224.722
  H     -411.417    -269.869     225.137
  H     -411.589    -269.523     226.854
  P     -412.482    -266.073     223.167
  C     -413.810    -267.677     221.533
  O     -412.618    -267.344     222.210
  O     -410.915    -265.987     223.467
  O     -412.998    -264.819     222.525
  H     -410.584    -265.084     223.304
  H     -413.656    -268.565     220.956
  H     -414.088    -266.873     220.884
  H     -414.590    -267.845     222.246

 6  7  8  9  10  11  12  13  14  15  26  29  33  34 0
 6-311+G(2d,p)
 ****
 36  38  39  40  41 0
 6-311+G(2d,p)
 ****
 1  2  3  4  5  16  17  18  19  20  21  22  23  24  25 0
 3-21G
 ****
 27  28  30  31  32  35  37  42  43  44  45  46  47 0
 3-21G
 ****
 48  49 0
 3-21G
 ****


