%nproc=1
%NoSave
%Mem=1900MB
#P OB98/GEN NMR

erre ene a

0 1
  C     -430.339      79.383     249.559
  O     -429.473      78.967     250.602
  P     -428.075      78.290     250.209
  C     -428.797      75.956     251.106
  O     -427.864      77.022     251.173
  C     -428.743      75.118     252.386
  O     -427.491      74.364     252.417
  C     -428.808      75.943     253.679
  O     -429.512      75.162     254.658
  C     -427.348      76.055     254.073
  O     -427.159      76.386     255.440
  C     -426.851      74.659     253.675
  N     -425.397      74.577     253.575
  C     -424.751      73.644     254.379
  O     -425.330      72.891     255.164
  N     -423.384      73.639     254.304
  C     -422.615      74.511     253.594
  O     -421.388      74.525     253.661
  C     -423.348      75.476     252.764
  C     -424.683      75.466     252.789
  O     -426.996      79.347     250.731
  O     -427.913      77.995     248.756
  H     -427.589      77.243     255.594
  H     -426.667      79.894     249.990
  H     -422.899      72.958     254.872
  H     -422.765      76.171     252.170
  H     -425.250      76.180     252.205
  H     -427.211      73.913     254.398
  H     -426.867      76.836     253.472
  H     -429.292      76.919     253.553
  H     -429.561      74.383     252.362
  H     -428.559      75.322     250.251
  H     -429.808      76.359     250.954
  P     -430.800      75.821     255.359
  C     -430.367      75.035     257.819
  O     -431.138      74.916     256.642
  O     -431.943      75.431     254.303
  O     -430.675      77.288     255.592
  H     -431.865      74.515     253.985
  H     -430.027      76.063     257.976
  H     -429.495      74.374     257.749
  H     -430.975      74.731     258.672
  H     -431.224      79.812     249.980
  H     -430.603      78.539     248.957
  H     -429.843      80.112     248.953

 3  4  5  6  7  8  9  10  11  12  13  23  28  29  30  31  32 0
 6-311+G(2d,p)
 ****
 33  34 0
 6-311+G(2d,p)
 ****
 1  2  14  15  16  17  18  19  20  21  22  24  25  26 0
 3-21G
 ****
 27  35  36  37  38  39  40  41  42  43  44  45 0
 3-21G
 ****


