%nproc=1
%NoSave
%Mem=1900MB
#P OB98/GEN NMR

erre ene a

0 1
  C        9.679     229.786      61.258
  O        8.356     230.093      60.866
  H        9.769     229.936      62.338
  H       10.396     230.440      60.753
  H        9.906     228.741      61.031
  P        7.996     230.109      59.306
  C        7.765     231.994      57.561
  O        7.651     231.633      58.934
  C        8.387     233.383      57.418
  O        7.466     234.364      57.971
  C        9.732     233.535      58.138
  O       10.580     234.364      57.342
  C        9.346     234.242      59.422
  O       10.440     234.940      59.983
  C        8.175     235.120      58.971
  N        7.317     235.481      60.099
  C        7.532     236.742      60.668
  O        8.395     237.491      60.213
  N        6.811     237.097      61.783
  C        5.988     236.247      62.316
  N        5.337     236.651      63.440
  C        5.751     234.900      61.762
  C        6.438     234.584      60.666
  O        6.980     229.112      58.854
  O        9.408     229.872      58.588
  H       11.249     234.393      59.905
  H        9.555     228.917      58.448
  H        5.059     234.226      62.251
  H        6.339     233.609      60.198
  H        8.542     236.043      58.497
  H        8.999     233.504      60.160
  H       10.222     232.573      58.332
  H        8.487     233.611      56.348
  H        5.551     237.578      63.795
  H        6.758     231.995      57.131
  H        4.707     236.065      63.969
  H        8.372     231.253      57.035
  P       11.866     233.751      56.600
  C       14.188     232.858      57.210
  O       13.064     233.603      57.663
  O       12.247     234.440      55.330
  O       11.447     232.228      56.307
  H       11.898     231.920      55.497
  H       14.925     232.818      57.985
  H       14.605     233.331      56.346
  H       13.880     231.865      56.959

 6  7  8  9  10  11  12  13  14  15  16  26  30  31  32  33  35 0
 6-311+G(2d,p)
 ****
 37  38 0
 6-311+G(2d,p)
 ****
 1  2  3  4  5  17  18  19  20  21  22  23  24  25 0
 3-21G
 ****
 27  28  29  34  36  39  40  41  42  43  44  45  46 0
 3-21G
 ****


