%nproc=1
%NoSave
%Mem=1900MB
#P OB98/GEN NMR

erre ene a

0 1
  C     -556.457     115.447     179.521
  O     -556.437     116.679     178.829
  P     -555.608     117.952     179.309
  C     -557.376     119.352     178.008
  O     -556.530     119.263     179.157
  C     -558.622     120.216     178.237
  O     -559.504     119.545     179.174
  C     -558.224     121.551     178.898
  O     -557.766     122.628     178.107
  C     -559.377     121.886     179.840
  O     -560.291     122.823     179.268
  C     -560.064     120.537     180.067
  N     -561.872     120.843     184.796
  C     -562.434     121.301     183.618
  N     -563.513     122.088     183.749
  N     -561.964     121.016     182.434
  C     -560.819     120.278     182.468
  C     -560.168     119.766     183.570
  C     -560.729     120.057     184.870
  O     -560.208     119.740     185.943
  N     -558.999     119.138     183.227
  C     -558.907     119.309     181.923
  N     -559.969     120.032     181.427
  O     -554.174     118.034     178.852
  O     -555.583     117.737     180.908
  H     -560.994     122.996     179.924
  H     -554.721     118.070     181.243
  H     -562.234     121.167     185.691
  H     -558.083     118.971     181.307
  H     -561.128     120.604     179.818
  H     -559.005     122.345     180.765
  H     -563.819     122.454     184.651
  H     -557.375     121.329     179.568
  H     -563.857     122.588     182.928
  H     -559.200     120.334     177.319
  H     -557.662     118.323     177.729
  H     -556.810     119.768     177.168
  P     -556.286     123.236     178.102
  C     -557.430     125.470     177.593
  O     -556.389     124.824     178.308
  O     -555.806     123.105     176.567
  O     -555.310     122.543     179.007
  H     -554.833     123.119     176.521
  H     -557.231     126.545     177.565
  H     -558.386     125.312     178.112
  H     -557.489     125.092     176.576
  H     -557.084     114.755     178.999
  H     -556.839     115.599     180.509
  H     -555.463     115.054     179.579

 3  4  5  6  7  8  9  10  11  12  23  26  30  31 0
 6-311+G(2d,p)
 ****
 33  35  36  37  38 0
 6-311+G(2d,p)
 ****
 1  2  13  14  15  16  17  18  19  20  21  22  24  25 0
 3-21G
 ****
 27  28  29  32  34  39  40  41  42  43  44  45  46  47  48  49 0
 3-21G
 ****


