%nproc=1
%NoSave
%Mem=1900MB
#P OB98/GEN NMR

erre ene a

0 1
  C     -197.442    -260.806     639.407
  O     -198.399    -261.838     639.484
  P     -197.968    -263.324     639.904
  C     -199.969    -263.703     641.481
  O     -198.550    -263.571     641.384
  C     -200.420    -263.381     642.903
  O     -200.196    -261.985     643.224
  C     -201.916    -263.580     643.137
  O     -202.418    -264.899     643.067
  C     -202.109    -262.828     644.442
  O     -201.727    -263.630     645.565
  C     -201.142    -261.633     644.267
  N     -201.848    -260.388     643.973
  C     -202.707    -259.926     644.965
  O     -202.883    -260.507     646.034
  N     -203.387    -258.776     644.672
  C     -203.341    -258.087     643.504
  O     -204.017    -257.097     643.285
  C     -202.428    -258.637     642.477
  C     -201.736    -259.748     642.756
  O     -196.513    -263.628     639.751
  O     -198.921    -264.252     639.002
  H     -202.296    -264.426     645.565
  H     -199.869    -264.118     639.154
  H     -204.030    -258.432     645.371
  H     -202.360    -258.106     641.535
  H     -201.054    -260.170     642.015
  H     -200.551    -261.486     645.184
  H     -203.159    -262.546     644.596
  H     -202.461    -263.018     642.367
  H     -199.826    -263.973     643.601
  H     -200.245    -264.733     641.242
  H     -200.454    -263.046     640.744
  P     -203.800    -265.284     642.356
  C     -203.580    -267.451     640.946
  O     -203.466    -266.045     640.985
  O     -204.849    -264.224     642.320
  O     -204.313    -266.493     643.290
  H     -205.288    -266.496     643.299
  H     -203.282    -267.800     639.951
  H     -204.617    -267.759     641.122
  H     -202.927    -267.914     641.694
  H     -197.922    -259.896     639.113
  H     -196.695    -261.065     638.686
  H     -196.982    -260.674     640.364

 3  4  5  6  7  8  9  10  11  12  13  23  28  29  30  31  32 0
 6-311+G(2d,p)
 ****
 33  34 0
 6-311+G(2d,p)
 ****
 1  2  14  15  16  17  18  19  20  21  22  24  25  26  27 0
 3-21G
 ****
 35  36  37  38  39  40  41  42  43  44  45 0
 3-21G
 ****


