%nproc=1
%NoSave
%Mem=1900MB
#P OB98/GEN NMR

erre ene a

0 1
  C     -122.233    -212.225    -285.880
  O     -121.518    -211.790    -287.020
  P     -120.408    -212.743    -287.697
  C     -118.418    -211.098    -287.602
  O     -119.371    -211.765    -288.440
  C     -117.577    -210.139    -288.436
  O     -116.734    -210.857    -289.370
  C     -118.389    -209.190    -289.311
  O     -119.195    -208.236    -288.664
  C     -117.330    -208.669    -290.259
  O     -116.564    -207.627    -289.653
  C     -116.437    -209.925    -290.451
  N     -116.650    -210.556    -291.761
  C     -115.526    -210.694    -292.558
  O     -114.393    -210.333    -292.221
  N     -115.732    -211.254    -293.797
  C     -116.934    -211.626    -294.319
  O     -117.046    -212.079    -295.463
  C     -118.095    -211.440    -293.431
  C     -117.907    -210.926    -292.217
  O     -120.954    -213.849    -288.553
  O     -119.552    -213.266    -286.451
  H     -115.682    -207.625    -290.085
  H     -119.122    -212.561    -285.914
  H     -114.919    -211.352    -294.392
  H     -119.073    -211.747    -293.817
  H     -118.759    -210.777    -291.534
  H     -115.372    -209.679    -290.366
  H     -117.746    -208.270    -291.180
  H     -119.083    -209.800    -289.908
  H     -116.917    -209.591    -287.762
  H     -117.777    -211.844    -287.148
  H     -118.940    -210.574    -286.790
  P     -120.814    -208.278    -288.706
  C     -120.968    -206.549    -290.639
  O     -121.325    -206.894    -289.304
  O     -121.506    -208.798    -287.478
  O     -121.074    -209.280    -289.928
  H     -121.902    -209.765    -289.757
  H     -121.369    -205.565    -290.870
  H     -121.409    -207.263    -291.342
  H     -119.888    -206.510    -290.750
  H     -122.920    -211.462    -285.577
  H     -121.547    -212.424    -285.083
  H     -122.773    -213.118    -286.117

 3  4  5  6  7  8  9  10  11  12  13  23  28  29  30  31  32 0
 6-311+G(2d,p)
 ****
 33  34 0
 6-311+G(2d,p)
 ****
 1  2  14  15  16  17  18  19  20  21  22  24  25  26  27 0
 3-21G
 ****
 35  36  37  38  39  40  41  42  43  44  45 0
 3-21G
 ****


