%nproc=1
%NoSave
%Mem=1900MB
#P OB98/GEN NMR

erre ene a

0 1
  C     -363.546     462.385     349.919
  O     -364.568     462.951     350.737
  P     -364.537     464.525     351.033
  C     -365.536     464.127     353.382
  O     -365.642     464.845     352.157
  C     -366.920     463.818     353.949
  O     -367.626     462.833     353.149
  C     -366.879     463.234     355.355
  O     -366.575     464.229     356.313
  C     -368.264     462.623     355.469
  O     -369.238     463.618     355.833
  C     -368.525     462.126     354.024
  N     -368.389     460.680     353.877
  C     -369.422     459.916     354.407
  O     -370.363     460.452     354.998
  N     -369.364     458.542     354.272
  C     -368.358     458.003     353.671
  N     -368.338     456.643     353.566
  C     -367.231     458.779     353.107
  C     -367.307     460.103     353.254
  O     -364.574     465.410     349.840
  O     -363.164     464.708     351.850
  H     -369.015     463.892     356.742
  H     -362.807     465.600     351.676
  H     -366.410     458.280     352.602
  H     -366.527     460.757     352.872
  H     -369.537     462.407     353.705
  H     -368.308     461.838     356.239
  H     -366.116     462.435     355.399
  H     -367.504     464.741     353.956
  H     -369.113     456.131     353.962
  H     -364.957     464.711     354.105
  H     -367.628     456.141     353.061
  H     -364.967     463.206     353.202
  P     -365.362     463.946     357.329
  C     -366.758     463.121     359.360
  O     -365.921     464.133     358.819
  O     -364.417     465.230     357.131
  O     -364.617     462.678     357.076
  H     -363.483     464.969     357.239
  H     -366.791     463.229     360.449
  H     -366.374     462.122     359.117
  H     -367.776     463.238     358.966
  H     -363.710     461.332     349.820
  H     -362.592     462.556     350.371
  H     -363.569     462.842     348.952

 3  4  5  6  7  8  9  10  11  12  13  23  27  28  29  30  32 0
 6-311+G(2d,p)
 ****
 34  35 0
 6-311+G(2d,p)
 ****
 1  2  14  15  16  17  18  19  20  21  22  24  25  26 0
 3-21G
 ****
 31  33  36  37  38  39  40  41  42  43  44  45  46 0
 3-21G
 ****


