%nproc=1
%NoSave
%Mem=1900MB
#P OB98/GEN NMR

erre ene a

0 1
  C       70.873     -59.530     167.408
  O       69.695     -60.245     167.751
  P       68.507     -59.431     168.460
  C       68.313     -60.982     170.522
  O       68.658     -59.691     170.039
  C       68.626     -61.109     172.009
  O       67.886     -62.236     172.552
  C       70.113     -61.339     172.323
  O       70.493     -60.520     173.440
  C       70.160     -62.787     172.777
  O       71.265     -63.041     173.638
  C       68.792     -62.913     173.446
  N       68.393     -66.539     176.941
  C       68.644     -65.190     177.094
  N       68.879     -64.759     178.353
  N       68.668     -64.337     176.103
  C       68.385     -64.903     174.904
  C       68.112     -66.221     174.624
  C       68.148     -67.164     175.725
  O       68.023     -68.384     175.641
  N       67.858     -66.408     173.290
  C       67.983     -65.207     172.761
  N       68.349     -64.267     173.690
  O       67.209     -60.273     168.057
  O       68.379     -58.005     168.048
  H       71.160     -63.951     173.977
  H       66.564     -59.691     167.610
  H       68.404     -67.154     177.735
  H       67.848     -64.976     171.710
  H       68.783     -62.380     174.407
  H       70.243     -63.437     171.899
  H       68.840     -65.356     179.164
  H       70.786     -61.147     171.480
  H       69.044     -63.771     178.488
  H       68.258     -60.210     172.521
  H       68.884     -61.737     169.969
  H       67.245     -61.152     170.347
  P       71.954     -59.859     173.364
  C       72.585     -60.534     175.801
  O       72.850     -60.667     174.417
  O       71.751     -58.429     174.051
  O       72.502     -59.757     171.979
  H       72.427     -57.800     173.736
  H       71.653     -59.991     175.991
  H       73.411     -59.995     176.273
  H       72.510     -61.529     176.246
  H       71.572     -60.195     166.947
  H       71.307     -59.113     168.293
  H       70.627     -58.743     166.727

 3  4  5  6  7  8  9  10  11  12  23  26  30  31  33  0
 6-311+G(2d,p)
 ****
 35  36  37  38 0
 6-311+G(2d,p)
 ****
 1  2  13  14  15  16  17  18  19  20  21  22  24  25  27  28  29 0
 3-21G
 ****
 32  34  39  40  41  42  43  44  45  46  47  48  49 0
 3-21G
 ****


