%nproc=1
%NoSave
%Mem=1900MB
#P OB98/GEN NMR

erre ene a

0 1
  C     1129.005    -889.440    -175.817
  O     1128.989    -890.210    -177.009
  H     1129.172    -888.390    -176.091
  H     1129.829    -889.760    -175.173
  H     1128.064    -889.530    -175.301
  P     1128.930    -891.820    -176.887
  C     1126.952    -891.760    -178.537
  O     1127.424    -892.230    -177.255
  C     1125.634    -892.470    -178.906
  O     1125.977    -893.880    -179.219
  C     1124.539    -892.470    -177.813
  O     1123.294    -892.330    -178.439
  C     1124.726    -893.850    -177.206
  O     1123.546    -894.270    -176.536
  C     1125.145    -894.710    -178.397
  N     1125.823    -895.940    -177.958
  C     1125.052    -896.940    -177.484
  O     1123.809    -896.850    -177.458
  N     1125.661    -898.100    -177.000
  C     1126.965    -898.170    -176.941
  N     1127.493    -899.260    -176.410
  C     1127.840    -897.040    -177.401
  C     1127.225    -896.000    -177.910
  O     1129.440    -892.390    -175.613
  O     1129.797    -892.320    -178.153
  H     1122.778    -894.180    -177.137
  H     1130.738    -892.430    -177.879
  H     1128.907    -897.130    -177.350
  H     1127.768    -895.090    -178.274
  H     1124.266    -895.010    -178.974
  H     1125.543    -893.810    -176.452
  H     1124.732    -891.670    -177.065
  H     1125.285    -892.020    -179.834
  H     1126.857    -900.000    -176.082
  H     1127.714    -891.930    -179.250
  H     1128.498    -899.420    -176.289
  H     1126.748    -890.680    -178.471
  P     1122.757    -890.880    -178.848
  C     1122.707    -891.320    -181.393
  O     1123.269    -890.530    -180.343
  O     1122.991    -889.810    -177.843
  O     1121.184    -891.120    -179.073
  H     1120.712    -890.280    -178.843
  H     1123.113    -891.006    -182.332
  H     1121.644    -891.195    -181.404
  H     1122.943    -892.351    -181.229

 6  7  8  9  10  11  12  13  14  15  16  26  30  31  32  33  35 0
 6-311+G(2d,p)
 ****
 37  38 0
 6-311+G(2d,p)
 ****
 1  2  3  4  5  17  18  19  20  21  22  23  24  25 0
 3-21G
 ****
 27  28  29  34  36  39  40  41  42  43  44  45  46 0
 3-21G
 ****


