%nproc=1
%NoSave
%Mem=1900MB
#P OB98/GEN NMR

erre ene a

0 1
  C      534.958    -152.374      83.469
  O      533.646    -152.783      83.141
  H      534.909    -151.693      84.321
  H      535.404    -151.851      82.622
  H      535.577    -153.232      83.748
  P      533.443    -154.003      82.123
  C      533.941    -156.533      82.203
  O      533.755    -155.342      82.956
  C      533.597    -157.769      83.043
  O      534.487    -157.809      84.199
  C      532.160    -157.787      83.571
  O      531.753    -159.160      83.674
  C      532.331    -157.187      84.953
  O      531.221    -157.462      85.786
  C      533.660    -157.817      85.378
  N      534.282    -157.110      86.499
  C      534.086    -157.655      87.763
  O      533.393    -158.652      87.966
  N      534.664    -156.984      88.796
  C      535.361    -155.810      88.709
  O      535.831    -155.234      89.679
  C      535.508    -155.257      87.348
  C      534.969    -155.927      86.321
  O      534.169    -153.892      80.824
  O      531.858    -154.087      81.916
  H      530.397    -157.121      85.383
  H      531.655    -154.427      81.022
  H      534.536    -157.366      89.728
  H      536.042    -154.328      87.239
  H      535.060    -155.550      85.307
  H      533.517    -158.860      85.677
  H      532.424    -156.098      84.894
  H      531.459    -157.229      82.947
  H      533.812    -158.666      82.449
  H      534.981    -156.575      81.881
  H      533.297    -156.503      81.308
  P      530.750    -159.835      82.617
  C      530.788    -160.432      80.107
  O      531.569    -160.180      81.278
  O      529.498    -159.058      82.385
  O      530.418    -161.277      83.232
  H      529.535    -161.566      82.934
  H      531.438    -160.649      79.285
  H      530.199    -159.568      79.878
  H      530.143    -161.268      80.282

 6  7  8  9  10  11  12  13  14  15  16  26  31  32  33  34  35 0
 6-311+G(2d,p)
 ****
 36  37 0
 6-311+G(2d,p)
 ****
 1  2  3  4  5  17  18  19  20  21  22  23  24  25 0
 3-21G
 ****
 27  28  29  30  38  39  40  41  42  43  44  45 0
 3-21G
 ****


