%nproc=1
%NoSave
%Mem=1900MB
#P OB98/GEN NMR

erre ene a

0 1
  C     -223.123     531.660     177.440
  O     -222.824     533.035     177.436
  P     -223.893     534.173     177.104
  C     -224.716     534.358     179.579
  O     -225.046     534.127     178.215
  C     -225.980     534.588     180.420
  O     -225.615     534.579     181.822
  C     -226.613     535.965     180.129
  O     -228.031     535.947     180.047
  C     -225.985     536.852     181.198
  O     -226.711     538.046     181.441
  C     -225.865     535.891     182.371
  N     -223.960     539.343     185.580
  C     -225.193     539.318     184.966
  N     -225.939     540.438     185.084
  N     -225.638     538.300     184.277
  C     -224.740     537.294     184.157
  C     -223.486     537.208     184.718
  C     -223.019     538.325     185.505
  O     -221.886     538.438     185.972
  N     -222.826     536.073     184.320
  C     -223.666     535.486     183.491
  N     -224.824     536.210     183.331
  O     -224.298     534.319     175.677
  O     -223.083     535.509     177.521
  H     -226.859     538.486     180.578
  H     -223.361     536.220     176.907
  H     -223.642     540.194     186.031
  H     -223.476     534.563     182.956
  H     -226.795     535.841     182.943
  H     -224.995     537.153     180.836
  H     -225.566     541.293     185.479
  H     -226.308     536.324     179.146
  H     -226.724     540.540     184.446
  H     -226.681     533.764     180.254
  H     -224.085     535.253     179.598
  H     -224.132     533.528     179.979
  P     -228.979     536.643     178.968
  C     -229.150     534.561     177.480
  O     -228.763     535.919     177.553
  O     -228.338     538.090     178.727
  O     -230.406     536.774     179.385
  H     -229.053     538.749     178.633
  H     -228.703     534.119     176.576
  H     -230.240     534.496     177.404
  H     -228.806     534.004     178.353
  H     -222.244     531.105     177.691
  H     -223.465     531.367     176.470
  H     -223.888     531.463     178.162

 3  4  5  6  7  8  9  10  11  12  23  26  30  31 0
 6-311+G(2d,p)
 ****
 33  35  36  37  38 0
 6-311+G(2d,p)
 ****
 1  2  13  14  15  16  17  18  19  20  21  22  24  25 0
 3-21G
 ****
 27  28  29  32  34  39  40  41  42  43  44  45  46  47  48  49 0
 3-21G
 ****


