%nproc=1
%NoSave
%Mem=1900MB
#P OB98/GEN NMR

erre ene a

0 1
  C       -3.442      45.676    -142.342
  O       -4.508      45.215    -143.147
  H       -3.789      45.751    -141.308
  H       -3.118      46.665    -142.677
  H       -2.603      44.976    -142.383
  P       -4.192      44.994    -144.704
  C       -3.653      42.472    -144.377
  O       -3.182      43.750    -144.785
  C       -2.645      41.398    -144.778
  O       -3.136      40.101    -144.371
  C       -2.406      41.294    -146.280
  O       -1.522      42.298    -146.748
  C       -1.837      39.885    -146.391
  O       -0.432      39.860    -146.108
  C       -2.604      39.129    -145.298
  N       -3.671      34.850    -147.851
  C       -2.508      35.361    -147.391
  N       -2.311      36.504    -146.700
  C       -3.479      37.133    -146.487
  C       -4.739      36.737    -146.900
  C       -4.816      35.531    -147.614
  N       -5.994      35.027    -148.112
  N       -5.686      37.672    -146.530
  C       -5.011      38.610    -145.897
  N       -3.677      38.323    -145.843
  O       -3.271      46.255    -145.064
  O       -5.389      44.903    -145.590
  H        0.005      40.359    -146.825
  H       -3.824      46.968    -145.433
  H       -1.618      34.778    -147.611
  H       -5.439      39.509    -145.472
  H       -1.953      38.458    -144.725
  H       -1.973      39.480    -147.394
  H       -3.360      41.334    -146.819
  H       -1.704      41.588    -144.247
  H       -4.611      42.266    -144.867
  H       -3.800      42.478    -143.293
  H       -5.971      34.167    -148.636
  H       -6.836      35.581    -148.033
  P       -1.507      42.633    -148.313
  C       -2.562      44.970    -147.880
  O       -2.635      43.741    -148.585
  O       -2.107      41.308    -148.978
  O       -0.163      42.975    -148.864
  H       -1.390      40.750    -149.334
  H       -3.379      45.597    -148.170
  H       -1.638      45.459    -148.110
  H       -2.613      44.781    -146.828

 6  7  8  9  10  11  12  13  14  15  25  28  32  33  34  35 0
 6-311+G(2d,p)
 ****
 36  37  40 0
 6-311+G(2d,p)
 ****
 1  2  3  4  5  16  17  18  19  20  21  22  23  24 0
 3-21G
 ****
 26  27  29  30  31  38  39 41  42  43  44  45  46  47  48 0
 3-21G
 ****


