%nproc=1
%NoSave
%Mem=1900MB
#P OB98/GEN NMR

erre ene a

0 1
  C      -30.127    1329.578    1252.687
  O      -30.323    1330.861    1252.089
  P      -29.835    1331.042    1250.547
  C      -27.252    1330.723    1251.024
  O      -28.333    1331.599    1250.631
  C      -25.942    1331.461    1250.835
  O      -25.806    1331.909    1249.465
  C      -25.755    1332.707    1251.702
  O      -25.464    1332.395    1253.061
  C      -24.627    1333.439    1250.939
  O      -23.369    1332.874    1251.295
  C      -24.991    1333.094    1249.469
  N      -25.661    1334.200    1248.800
  C      -25.025    1334.766    1247.693
  O      -23.899    1334.367    1247.300
  N      -25.669    1335.807    1247.062
  C      -26.884    1336.347    1247.482
  O      -27.376    1337.297    1246.905
  C      -27.526    1335.745    1248.636
  C      -26.887    1334.694    1249.249
  O      -30.735    1332.308    1250.151
  O      -30.081    1329.828    1249.732
  H      -30.933    1332.894    1250.933
  H      -23.068    1333.384    1252.091
  H      -25.228    1336.185    1246.282
  H      -28.455    1336.147    1248.993
  H      -27.341    1334.249    1250.107
  H      -24.063    1332.849    1248.915
  H      -24.602    1334.515    1251.173
  H      -26.673    1333.308    1251.660
  H      -25.110    1330.748    1251.061
  H      -27.267    1329.842    1250.374
  H      -27.413    1330.419    1252.049
  P      -26.724    1332.422    1254.103
  C      -26.401    1335.017    1254.328
  O      -26.578    1333.773    1254.956
  O      -26.327    1331.248    1255.074
  O      -28.052    1332.239    1253.444
  H      -25.353    1331.249    1255.320
  H      -26.688    1335.814    1255.003
  H      -27.001    1335.112    1253.387
  H      -25.322    1335.119    1254.066
  H      -30.489    1329.595    1253.694
  H      -29.084    1329.340    1252.687
  H      -30.662    1328.839    1252.128

 3  4  5  6  7  8  9  10  11  12  13  24  28  29  30  31  32 0
 6-311+G(2d,p)
 ****
 33  34 0
 6-311+G(2d,p)
 ****
 1  2  14  15  16  17  18  19  20  21  22  23  25  26  27 0
 3-21G
 ****
 35  36  37  38  39  40  41  42  43  44  45 0
 3-21G
 ****


