%nproc=1
%NoSave
%Mem=1900MB
#P OB98/GEN NMR

erre ene a

0 1
  C      432.570    -262.699    -620.356
  O      431.926    -262.662    -621.630
  P      431.670    -264.052    -622.392
  C      429.078    -263.812    -622.459
  O      430.203    -264.569    -622.025
  C      427.793    -264.348    -621.820
  O      427.720    -264.061    -620.413
  C      426.519    -263.751    -622.416
  O      426.156    -264.403    -623.628
  C      425.510    -264.067    -621.325
  O      425.091    -265.441    -621.425
  C      426.342    -263.863    -620.053
  N      424.558    -261.240    -616.020
  C      424.512    -262.558    -616.335
  N      424.993    -263.177    -617.429
  C      425.577    -262.294    -618.257
  C      425.701    -260.923    -618.076
  C      425.151    -260.395    -616.902
  N      425.186    -259.042    -616.586
  N      426.353    -260.340    -619.143
  C      426.643    -261.342    -619.944
  N      426.189    -262.546    -619.455
  O      432.625    -265.065    -621.608
  O      431.992    -264.010    -623.850
  H      424.322    -265.551    -620.841
  H      432.976    -265.737    -622.229
  H      424.035    -263.194    -615.593
  H      427.191    -261.254    -620.881
  H      426.098    -264.597    -619.275
  H      424.608    -263.446    -621.390
  H      426.615    -262.666    -622.547
  H      427.773    -265.445    -621.949
  H      429.007    -263.846    -623.547
  H      424.806    -258.760    -615.713
  H      425.664    -258.414    -617.226
  H      429.238    -262.765    -622.193
  P      426.682    -263.753    -624.992
  C      428.088    -265.879    -625.542
  O      428.077    -264.483    -625.309
  O      427.098    -262.274    -624.562
  O      425.672    -263.756    -626.100
  H      426.988    -261.662    -625.311
  H      429.026    -266.150    -626.036
  H      427.260    -266.174    -626.199
  H      428.016    -266.415    -624.588
  H      432.669    -261.703    -619.977
  H      433.540    -263.140    -620.459
  H      431.984    -263.282    -619.677

 3  4  5  6  7  8  9  10  11  12  22  25  29  30  31  32 0
 6-311+G(2d,p)
 ****
 33  36  37 0
 6-311+G(2d,p)
 ****
 1  2  13  14  15  16  17  18  19  20  21  23  24  26 0
 3-21G
 ****
 27  28  34  35  38  39  40  41  42  43  44  45  46  47  48 0
 3-21G
 ****


