%nproc=1
%NoSave
%Mem=1900MB
#P OB98/GEN NMR

erre ene a

0 1
  C      194.323    -117.132     400.212
  O      194.368    -115.768     400.590
  P      192.976    -114.961     400.566
  C      191.193    -114.448     398.726
  O      192.410    -115.091     399.069
  C      191.277    -113.926     397.291
  O      191.775    -114.949     396.411
  C      189.942    -113.476     396.710
  O      189.627    -112.163     397.143
  C      190.209    -113.585     395.214
  O      190.927    -112.427     394.734
  C      191.085    -114.841     395.134
  N      190.837    -118.943     392.191
  C      191.625    -117.815     392.077
  N      192.506    -117.801     391.055
  N      191.559    -116.796     392.895
  C      190.622    -116.946     393.857
  C      189.772    -118.007     394.064
  C      189.890    -119.147     393.188
  O      189.286    -120.210     393.302
  N      188.942    -117.784     395.136
  C      189.317    -116.606     395.595
  N      190.347    -116.065     394.865
  O      193.441    -113.436     400.676
  O      191.997    -115.350     401.629
  H      190.425    -111.625     394.948
  H      193.359    -113.118     401.597
  H      190.941    -119.707     391.543
  H      188.890    -116.115     396.453
  H      191.859    -114.762     394.356
  H      189.284    -113.640     394.632
  H      192.597    -118.536     390.372
  H      189.148    -114.176     396.990
  H      193.096    -116.979     390.951
  H      192.000    -113.097     397.275
  H      191.021    -113.609     399.406
  H      190.368    -115.161     398.830
  P      188.077    -111.786     397.282
  C      186.083    -111.493     395.642
  O      187.476    -111.692     395.799
  O      188.112    -110.261     397.781
  O      187.308    -112.646     398.230
  H      187.377    -110.102     398.403
  H      185.912    -110.941     394.710
  H      185.656    -110.925     396.474
  H      185.589    -112.465     395.582
  H      195.306    -117.551     400.270
  H      193.960    -117.212     399.209
  H      193.669    -117.664     400.872

 3  4  5  6  7  8  9  10  11  12  23  26  30  31 0
 6-311+G(2d,p)
 ****
 33  35  36  37  38 0
 6-311+G(2d,p)
 ****
 1  2  13  14  15  16  17  18  19  20  21  22  24  25 0
 3-21G
 ****
 27  28  29  32  34  39  40  41  42  43  44  45  46  47  48  49 0
 3-21G
 ****


