%nproc=1
%NoSave
%Mem=1900MB
#P OB98/GEN NMR

erre ene a

0 1
  C      176.372     780.297     152.677
  O      176.806     781.643     152.613
  H      177.220     779.668     152.953
  H      176.000     779.973     151.699
  H      175.586     780.188     153.431
  P      175.702     782.728     152.194
  C      177.142     783.690     150.262
  O      176.504     783.939     151.505
  C      177.679     784.988     149.669
  O      176.590     785.854     149.266
  C      178.554     785.806     150.612
  O      179.887     785.329     150.614
  C      178.429     787.196     150.006
  O      179.312     787.362     148.875
  C      176.962     787.226     149.561
  N      175.276     791.511     151.637
  C      176.163     791.314     150.600
  N      176.739     792.427     150.078
  N      176.482     790.136     150.131
  C      175.861     789.119     150.775
  C      174.947     789.187     151.801
  C      174.589     790.498     152.295
  O      173.753     790.744     153.160
  N      174.531     787.937     152.180
  C      175.215     787.113     151.408
  N      176.056     787.782     150.549
  O      175.234     783.351     153.595
  O      174.544     782.201     151.412
  H      179.304     788.293     148.596
  H      174.301     783.623     153.526
  H      175.059     792.443     151.943
  H      175.146     786.035     151.430
  H      176.819     787.805     148.640
  H      178.696     787.974     150.721
  H      176.788     793.287     150.601
  H      178.134     785.812     151.625
  H      177.407     792.288     149.330
  H      178.239     784.734     148.758
  H      176.420     783.250     149.570
  H      177.968     782.982     150.417
  P      180.382     784.510     151.912
  C      182.457     785.872     152.690
  O      181.968     784.723     152.003
  O      180.242     782.980     151.454
  O      179.615     784.795     153.162
  H      180.253     782.396     152.238
  H      183.527     785.874     152.665
  H      182.124     785.848     153.707
  H      182.088     786.756     152.214

 6  7  8  9  10  11  12  13  14  15  26  29  33  34 0
 6-311+G(2d,p)
 ****
 36  38  39  40  41 0
 6-311+G(2d,p)
 ****
 1  2  3  4  5  16  17  18  19  20  21  22  23  24  25 0
 3-21G
 ****
 27  28  30  31  32  35  37  42  43  44  45  46  47 0
 3-21G
 ****
 48  49 0
 3-21G
 ****


