%nproc=1
%NoSave
%Mem=1900MB
#P OB98/GEN NMR

erre ene a

0 1
  C      -17.774      44.838     125.349
  O      -17.304      44.469     124.060
  P      -15.777      44.817     123.702
  C      -14.338      46.974     123.794
  O      -15.635      46.401     123.915
  C      -14.438      48.443     123.404
  O      -15.157      49.170     124.417
  C      -13.099      49.153     123.267
  O      -12.486      48.895     122.013
  C      -13.526      50.609     123.378
  O      -14.012      51.070     122.104
  C      -14.677      50.538     124.396
  N      -14.744      54.212     127.880
  C      -15.268      54.194     126.602
  N      -15.927      55.305     126.207
  N      -15.154      53.180     125.785
  C      -14.506      52.125     126.330
  C      -13.940      52.023     127.582
  C      -14.028      53.171     128.457
  O      -13.527      53.268     129.575
  N      -13.381      50.786     127.777
  C      -13.638      50.130     126.664
  N      -14.292      50.909     125.743
  O      -15.733      44.655     122.110
  O      -14.758      43.965     124.377
  H      -13.243      51.120     121.506
  H      -14.822      44.449     121.823
  H      -14.876      55.012     128.472
  H      -13.370      49.097     126.484
  H      -15.520      51.168     124.089
  H      -12.707      51.275     123.667
  H      -16.160      56.060     126.833
  H      -12.432      48.902     124.099
  H      -16.349      55.295     125.287
  H      -15.007      48.511     122.468
  H      -13.778      46.438     123.021
  H      -13.814      46.863     124.748
  P      -10.922      48.529     122.040
  C       -8.827      49.908     122.719
  O      -10.168      49.923     122.267
  O      -10.606      48.161     120.516
  O      -10.565      47.424     122.975
  H       -9.843      47.553     120.467
  H       -8.270      49.070     122.290
  H       -8.813      49.834     123.810
  H       -8.342      50.839     122.420
  H      -18.799      44.549     125.451
  H      -17.689      45.898     125.470
  H      -17.188      44.346     126.097

 3  4  5  6  7  8  9  10  11  12  23  26  30  31  33  0
 6-311+G(2d,p)
 ****
 35  36  37  38 0
 6-311+G(2d,p)
 ****
 1  2  13  14  15  16  17  18  19  20  21  22  24  25  27  28  29 0
 3-21G
 ****
 32  34  39  40  41  42  43  44  45  46  47  48  49 0
 3-21G
 ****


