%nproc=1
%NoSave
%Mem=1900MB
#P OB98/GEN NMR

erre ene a

0 1
  C     -422.194     285.631      97.446
  O     -422.623     285.488      96.098
  P     -421.489     285.453      94.961
  C     -421.467     282.867      94.751
  O     -420.753     284.040      95.129
  C     -420.774     282.170      93.593
  O     -419.375     282.010      93.884
  C     -421.290     280.763      93.294
  O     -422.481     280.794      92.524
  C     -420.132     280.192      92.493
  O     -420.228     280.620      91.124
  C     -418.911     280.834      93.171
  N     -414.488     278.724      94.460
  C     -414.787     279.596      93.432
  N     -413.754     279.981      92.647
  N     -415.992     280.048      93.190
  C     -416.917     279.607      94.075
  C     -416.743     278.746      95.132
  C     -415.417     278.214      95.359
  O     -415.103     277.390      96.214
  N     -417.917     278.554      95.813
  C     -418.790     279.323      95.195
  N     -418.235     279.963      94.115
  O     -420.403     286.502      95.500
  O     -421.955     285.796      93.587
  H     -420.931     280.091      90.707
  H     -419.890     286.860      94.751
  H     -413.542     278.421      94.612
  H     -419.823     279.444      95.493
  H     -418.176     281.176      92.430
  H     -420.122     279.098      92.485
  H     -412.792     279.769      92.868
  H     -421.418     280.194      94.219
  H     -413.952     280.648      91.911
  H     -420.864     282.808      92.703
  H     -422.481     283.147      94.447
  H     -421.533     282.201      95.619
  P     -423.658     279.802      92.990
  C     -424.784     281.914      94.014
  O     -424.394     280.564      94.199
  O     -422.874     278.614      93.711
  O     -424.534     279.322      91.885
  H     -423.398     277.789      93.675
  H     -425.117     282.102      92.994
  H     -423.937     282.568      94.250
  H     -425.603     282.139      94.699
  H     -423.046     285.639      98.093
  H     -421.656     286.550      97.554
  H     -421.557     284.812      97.706

 3  4  5  6  7  8  9  10  11  12  23  26  30  31  33  0
 6-311+G(2d,p)
 ****
 35  36  37  38 0
 6-311+G(2d,p)
 ****
 1  2  13  14  15  16  17  18  19  20  21  22  24  25  27  28  29 0
 3-21G
 ****
 32  34  39  40  41  42  43  44  45  46  47  48  49 0
 3-21G
 ****


