%nproc=1
%NoSave
%Mem=1900MB
#P OB98/GEN NMR

erre ene a

0 1
  C      160.363     279.263      49.078
  O      160.322     280.432      49.872
  H      159.351     278.896      48.888
  H      160.839     279.504      48.123
  H      160.952     278.490      49.580
  P      159.563     280.309      51.280
  C      159.673     281.642      53.499
  O      160.339     281.272      52.302
  C      159.936     283.109      53.816
  O      161.316     283.302      54.187
  C      159.693     284.065      52.653
  O      158.314     284.346      52.473
  C      160.456     285.291      53.135
  O      159.651     286.024      54.076
  C      161.665     284.670      53.851
  N      165.570     287.482      52.057
  C      164.514     287.802      52.839
  N      163.511     287.007      53.264
  C      163.674     285.750      52.819
  C      164.698     285.278      52.018
  C      165.678     286.203      51.624
  N      166.740     285.870      50.814
  N      164.543     283.929      51.775
  C      163.443     283.592      52.417
  N      162.878     284.662      53.059
  O      159.952     278.840      51.788
  O      158.082     280.494      51.225
  H      158.855     286.319      53.593
  H      159.190     278.456      52.262
  H      164.469     288.836      53.169
  H      163.027     282.593      52.447
  H      161.880     285.183      54.797
  H      160.723     285.977      52.328
  H      160.153     283.694      51.732
  H      159.315     283.384      54.680
  H      160.041     281.026      54.326
  H      167.506     286.518      50.730
  H      166.817     284.909      50.501
  H      158.599     281.464      53.374
  P      157.822     284.716      50.989
  C      155.469     285.043      49.945
  O      156.239     284.447      50.980
  O      158.404     283.518      50.105
  O      158.267     286.047      50.487
  H      158.522     283.813      49.181
  H      154.440     284.777      50.068
  H      155.817     284.693      48.995
  H      155.571     286.107      49.992

 6  7  8  9  10  11  12  13  14  15  25  28  32  33  34  35 0
 6-311+G(2d,p)
 ****
 36  39  40 0
 6-311+G(2d,p)
 ****
 1  2  3  4  5  16  17  18  19  20  21  22  23  24 0
 3-21G
 ****
 26  27  29  30  31  37  38  41  42  43  44  45  46  47  48 0
 3-21G
 ****


