%nproc=1
%NoSave
%Mem=1900MB
#P OB98/GEN NMR

erre ene a

0 1
  C     -818.854    1101.328     127.163
  O     -819.262    1101.811     125.899
  H     -817.835    1100.947     127.078
  H     -819.505    1100.510     127.476
  H     -818.869    1102.126     127.911
  P     -820.669    1102.561     125.770
  C     -819.553    1104.582     124.623
  O     -820.369    1104.137     125.692
  C     -819.599    1106.110     124.495
  O     -820.892    1106.486     123.964
  C     -819.409    1106.840     125.835
  O     -818.651    1108.028     125.601
  C     -820.822    1107.203     126.239
  O     -820.866    1108.343     127.087
  C     -821.499    1107.419     124.885
  N     -825.936    1109.661     125.775
  C     -824.665    1110.201     125.691
  N     -824.559    1111.530     125.893
  N     -823.595    1109.493     125.435
  C     -823.856    1108.180     125.234
  C     -825.067    1107.526     125.288
  C     -826.236    1108.321     125.594
  O     -827.389    1107.895     125.693
  N     -824.915    1106.188     125.044
  C     -823.619    1106.032     124.845
  N     -822.935    1107.203     124.957
  O     -821.687    1102.173     126.797
  O     -821.170    1102.212     124.292
  H     -821.751    1108.362     127.504
  H     -821.885    1101.553     124.314
  H     -826.722    1110.248     125.984
  H     -823.137    1105.088     124.615
  H     -821.346    1108.432     124.499
  H     -821.279    1106.363     126.772
  H     -825.346    1112.140     126.069
  H     -818.905    1106.220     126.572
  H     -823.645    1111.956     125.809
  H     -818.847    1106.421     123.768
  H     -819.917    1104.125     123.696
  H     -818.519    1104.250     124.794
  P     -817.117    1107.897     125.138
  C     -817.612    1109.282     123.035
  O     -817.040    1108.085     123.548
  O     -816.398    1106.699     125.668
  O     -816.461    1109.250     125.691
  H     -815.540    1109.067     125.966
  H     -817.504    1109.301     121.971
  H     -817.111    1110.127     123.459
  H     -818.651    1109.318     123.289

 6  7  8  9  10  11  12  13  14  15  26  29  33  34 0
 6-311+G(2d,p)
 ****
 36  38  39  40  41 0
 6-311+G(2d,p)
 ****
 1  2  3  4  5  16  17  18  19  20  21  22  23  24  25 0
 3-21G
 ****
 27  28  30  31  32  35  37  42  43  44  45  46  47 0
 3-21G
 ****
 48  49 0
 3-21G
 ****


