%nproc=1
%NoSave
%Mem=1900MB
#P OB98/GEN NMR

erre ene a

0 1
  C     -361.746     -92.112    -333.592
  O     -361.771     -90.952    -334.404
  H     -361.993     -91.823    -332.564
  H     -360.757     -92.572    -333.599
  H     -362.494     -92.828    -333.938
  P     -361.201     -91.067    -335.900
  C     -359.450     -89.168    -335.869
  O     -359.670     -90.574    -335.813
  C     -357.962     -88.840    -335.703
  O     -357.556     -89.039    -334.331
  C     -357.043     -89.730    -336.527
  O     -357.122     -89.508    -337.920
  C     -355.703     -89.565    -335.817
  O     -354.959     -88.429    -336.261
  C     -356.148     -89.357    -334.346
  N     -355.844     -90.516    -333.517
  C     -354.492     -90.816    -333.377
  O     -353.586     -90.190    -333.931
  N     -354.205     -91.922    -332.611
  C     -355.120     -92.748    -332.030
  O     -354.796     -93.743    -331.390
  C     -356.531     -92.397    -332.237
  C     -356.826     -91.307    -332.956
  O     -362.002     -90.372    -336.961
  O     -361.059     -92.645    -336.133
  H     -354.061     -88.508    -335.885
  H     -360.970     -92.856    -337.096
  H     -353.225     -92.150    -332.490
  H     -357.287     -93.030    -331.786
  H     -357.861     -91.027    -333.124
  H     -355.632     -88.485    -333.921
  H     -355.066     -90.449    -335.961
  H     -357.347     -90.767    -336.372
  H     -357.810     -87.776    -335.951
  H     -360.009     -88.710    -335.046
  H     -359.824     -88.770    -336.817
  P     -356.635     -90.572    -339.011
  C     -355.352     -88.808    -340.422
  O     -355.281     -90.023    -339.681
  O     -357.684     -91.164    -339.893
  O     -356.084     -91.765    -338.063
  H     -356.264     -92.606    -338.516
  H     -354.383     -88.568    -340.806
  H     -355.688     -88.019    -339.782
  H     -356.039     -88.925    -341.234

 6  7  8  9  10  11  12  13  14  15  16  26  31  32  33  34  35 0
 6-311+G(2d,p)
 ****
 36  37 0
 6-311+G(2d,p)
 ****
 1  2  3  4  5  17  18  19  20  21  22  23  24  25 0
 3-21G
 ****
 27  28  29  30  38  39  40  41  42  43  44  45 0
 3-21G
 ****


