%nproc=1
%NoSave
%Mem=1900MB
#P OB98/GEN NMR

erre ene a

0 1
  C       40.915     330.490    -182.713
  O       42.275     330.239    -183.059
  P       42.877     330.947    -184.366
  C       45.340     331.371    -185.235
  O       44.420     330.572    -184.522
  C       46.759     331.119    -184.691
  O       46.840     331.520    -183.306
  C       47.178     329.654    -184.765
  O       47.743     329.325    -186.017
  C       48.162     329.556    -183.612
  O       49.430     330.117    -183.988
  C       47.474     330.446    -182.548
  N       46.455     329.826    -181.674
  C       46.847     329.210    -180.487
  O       48.006     329.138    -180.094
  N       45.837     328.676    -179.727
  C       44.498     328.832    -179.929
  O       43.639     328.384    -179.188
  C       44.137     329.615    -181.120
  C       45.110     330.057    -181.926
  O       42.890     332.497    -183.989
  O       42.100     330.679    -185.623
  H       49.297     331.072    -184.120
  H       42.282     332.994    -184.567
  H       46.109     328.164    -178.898
  H       43.087     329.805    -181.298
  H       44.850     330.641    -182.807
  H       48.214     330.905    -181.890
  H       48.354     328.517    -183.344
  H       46.326     329.004    -184.535
  H       47.459     331.736    -185.267
  H       45.087     332.432    -185.141
  H       45.288     331.126    -186.301
  P       46.846     328.597    -187.129
  C       47.061     328.346    -189.671
  O       47.751     328.563    -188.460
  O       45.462     329.126    -187.303
  O       46.844     327.061    -186.670
  H       46.042     326.853    -186.144
  H       47.759     328.501    -190.505
  H       46.226     329.048    -189.774
  H       46.686     327.319    -189.712
  H       40.668     329.949    -181.824
  H       40.279     330.172    -183.513
  H       40.778     331.537    -182.543

 3  4  5  6  7  8  9  10  11  12  13  23  28  29  30  31  32 0
 6-311+G(2d,p)
 ****
 33  34 0
 6-311+G(2d,p)
 ****
 1  2  14  15  16  17  18  19  20  21  22  24  25  26  27 0
 3-21G
 ****
 35  36  37  38  39  40  41  42  43  44  45 0
 3-21G
 ****


