%nproc=1
%NoSave
%Mem=1900MB
#P OB98/GEN NMR

erre ene a

0 1
  C      262.352     -25.557     311.491
  O      261.071     -25.172     311.037
  H      262.873     -26.069     310.677
  H      262.257     -26.244     312.335
  H      262.933     -24.681     311.786
  P      260.168     -24.320     312.054
  C      258.833     -23.484     309.992
  O      258.776     -24.041     311.298
  C      257.529     -23.739     309.238
  O      257.474     -25.146     308.854
  C      256.259     -23.432     310.048
  O      255.270     -22.923     309.147
  C      255.813     -24.812     310.511
  O      254.430     -24.854     310.852
  C      256.191     -25.643     309.285
  N      253.468     -29.519     310.986
  C      253.110     -28.206     310.749
  N      251.828     -27.870     311.003
  N      253.937     -27.297     310.300
  C      255.181     -27.782     310.056
  C      255.661     -29.054     310.252
  C      254.741     -30.043     310.776
  O      255.005     -31.215     311.023
  N      256.988     -29.136     309.911
  C      257.308     -27.919     309.508
  N      256.241     -27.061     309.578
  O      260.891     -22.891     312.051
  O      260.045     -24.884     313.428
  H      254.232     -24.070     311.404
  H      261.534     -22.839     312.783
  H      252.796     -30.175     311.343
  H      258.285     -27.608     309.163
  H      255.479     -25.515     308.459
  H      256.393     -25.123     311.389
  H      251.123     -28.523     311.307
  H      256.409     -22.729     310.874
  H      251.535     -26.921     310.796
  H      257.546     -23.160     308.306
  H      259.662     -23.947     309.443
  H      259.016     -22.406     310.067
  P      254.237     -21.833     309.701
  C      254.666     -19.663     308.335
  O      253.877     -20.832     308.503
  O      255.149     -20.930     310.657
  O      253.070     -22.409     310.436
  H      254.603     -20.535     311.362
  H      254.301     -19.104     307.499
  H      255.684     -19.942     308.161
  H      254.607     -19.063     309.219

 6  7  8  9  10  11  12  13  14  15  26  29  33  34 0
 6-311+G(2d,p)
 ****
 36  38  39  40  41 0
 6-311+G(2d,p)
 ****
 1  2  3  4  5  16  17  18  19  20  21  22  23  24  25 0
 3-21G
 ****
 27  28  30  31  32  35  37  42  43  44  45  46  47 0
 3-21G
 ****
 48  49 0
 3-21G
 ****


