%nproc=1
%NoSave
%Mem=1900MB
#P OB98/GEN NMR

erre ene a

0 1
  C      -73.551    -264.127     217.702
  O      -74.829    -263.777     218.183
  H      -72.811    -263.880     218.467
  H      -73.329    -263.553     216.798
  H      -73.485    -265.196     217.482
  P      -76.117    -264.418     217.481
  C      -77.595    -263.860     215.441
  O      -76.346    -263.654     216.087
  C      -77.744    -262.988     214.195
  O      -78.030    -261.622     214.573
  C      -76.463    -262.936     213.364
  O      -76.284    -264.010     212.457
  C      -76.626    -261.614     212.619
  O      -77.401    -261.792     211.421
  C      -77.387    -260.750     213.627
  N      -74.914    -256.282     213.501
  C      -75.635    -256.904     212.501
  N      -75.646    -256.285     211.299
  N      -76.264    -258.039     212.665
  C      -76.082    -258.587     213.890
  C      -75.380    -258.070     214.957
  C      -74.731    -256.787     214.780
  O      -74.075    -256.196     215.632
  N      -75.422    -258.912     216.041
  C      -76.083    -259.967     215.608
  N      -76.527    -259.805     214.317
  O      -77.338    -263.879     218.372
  O      -76.127    -265.914     217.402
  H      -78.264    -262.172     211.668
  H      -78.088    -264.498     218.315
  H      -74.473    -255.396     213.326
  H      -76.290    -260.857     216.192
  H      -78.179    -260.167     213.140
  H      -75.661    -261.201     212.312
  H      -75.081    -255.476     211.093
  H      -75.588    -262.856     214.017
  H      -75.931    -256.832     210.485
  H      -78.597    -263.343     213.603
  H      -78.371    -263.610     216.167
  H      -77.720    -264.917     215.185
  P      -74.809    -264.507     212.085
  C      -72.919    -263.648     210.515
  O      -74.255    -263.521     210.950
  O      -75.084    -265.874     211.301
  O      -73.901    -264.708     213.249
  H      -74.992    -266.634     211.905
  H      -72.719    -262.917     209.760
  H      -72.767    -264.627     210.112
  H      -72.258    -263.496     211.343

 6  7  8  9  10  11  12  13  14  15  26  29  33  34 0
 6-311+G(2d,p)
 ****
 36  38  39  40  41 0
 6-311+G(2d,p)
 ****
 1  2  3  4  5  16  17  18  19  20  21  22  23  24  25 0
 3-21G
 ****
 27  28  30  31  32  35  37  42  43  44  45  46  47 0
 3-21G
 ****
 48  49 0
 3-21G
 ****


