%nproc=1
%NoSave
%Mem=1900MB
#P OB98/GEN NMR

erre ene a

0 1
  C     -377.643     389.729     151.900
  O     -378.894     390.389     152.120
  P     -380.034     389.799     153.082
  C     -380.394     391.455     155.030
  O     -380.841     391.012     153.755
  C     -380.674     392.944     155.249
  O     -379.758     393.753     154.479
  C     -382.068     393.398     154.823
  O     -383.047     392.999     155.769
  C     -381.863     394.905     154.712
  O     -381.960     395.540     155.994
  C     -380.427     394.993     154.163
  N     -380.383     395.267     152.734
  C     -379.828     396.492     152.352
  O     -379.468     397.308     153.203
  N     -379.733     396.784     151.011
  C     -380.212     395.952     150.137
  N     -380.077     396.289     148.828
  C     -380.876     394.686     150.504
  C     -380.924     394.413     151.804
  O     -379.536     388.786     154.062
  O     -381.110     389.143     152.092
  H     -381.894     396.501     155.834
  H     -381.532     388.384     152.542
  H     -381.287     394.039     149.744
  H     -381.390     393.502     152.159
  H     -379.862     395.777     154.690
  H     -382.601     395.380     154.060
  H     -382.302     392.988     153.830
  H     -380.512     393.164     156.309
  H     -379.612     397.158     148.607
  H     -379.309     391.281     155.093
  H     -380.411     395.712     148.061
  H     -380.885     390.857     155.805
  P     -383.654     391.518     155.697
  C     -383.500     391.180     158.242
  O     -384.353     391.222     157.107
  O     -382.725     390.455     155.217
  O     -384.908     391.669     154.713
  H     -385.031     390.828     154.226
  H     -384.100     391.373     159.138
  H     -382.708     391.929     158.166
  H     -383.052     390.188     158.325
  H     -377.048     390.308     151.225
  H     -377.820     388.761     151.480
  H     -377.126     389.625     152.831

 3  4  5  6  7  8  9  10  11  12  13  23  27  28  29  30  32 0
 6-311+G(2d,p)
 ****
 34  35 0
 6-311+G(2d,p)
 ****
 1  2  14  15  16  17  18  19  20  21  22  24  25  26 0
 3-21G
 ****
 31  33  36  37  38  39  40  41  42  43  44  45  46 0
 3-21G
 ****


