%nproc=1
%NoSave
%Mem=1900MB
#P OB98/GEN NMR

erre ene a

0 1
  C     -110.830     -24.603     137.741
  O     -111.227     -25.901     138.141
  H     -110.600     -24.017     138.636
  H     -111.632     -24.102     137.193
  H     -109.933     -24.659     137.120
  P     -111.777     -26.919     137.029
  C     -114.006     -25.664     136.711
  O     -112.789     -26.080     136.104
  C     -115.158     -25.714     135.705
  O     -114.963     -24.656     134.726
  C     -115.260     -27.047     134.949
  O     -116.644     -27.356     134.763
  C     -114.598     -26.728     133.624
  O     -115.031     -27.605     132.602
  C     -114.968     -25.255     133.415
  N     -114.030     -24.596     132.507
  C     -114.592     -23.868     131.450
  O     -115.818     -23.792     131.329
  N     -113.762     -23.295     130.520
  C     -112.478     -23.481     130.599
  N     -111.713     -22.921     129.621
  C     -111.843     -24.266     131.681
  C     -112.667     -24.785     132.593
  O     -112.320     -28.216     137.533
  O     -110.514     -27.146     136.069
  H     -114.558     -27.392     131.767
  H     -109.993     -27.912     136.376
  H     -110.771     -24.396     131.700
  H     -112.292     -25.387     133.416
  H     -115.983     -25.161     133.004
  H     -113.509     -26.835     133.720
  H     -114.761     -27.872     135.470
  H     -116.093     -25.491     136.234
  H     -112.196     -22.414     128.887
  H     -113.870     -24.632     137.065
  H     -110.711     -23.032     129.556
  H     -114.231     -26.305     137.570
  P     -117.401     -28.360     135.760
  C     -116.666     -30.580     134.709
  O     -116.570     -29.737     135.855
  O     -118.864     -28.539     135.480
  O     -117.184     -27.697     137.207
  H     -117.946     -27.918     137.779
  H     -116.084     -31.464     134.867
  H     -116.297     -30.058     133.851
  H     -117.689     -30.850     134.550

 6  7  8  9  10  11  12  13  14  15  16  26  30  31  32  33  35 0
 6-311+G(2d,p)
 ****
 37  38 0
 6-311+G(2d,p)
 ****
 1  2  3  4  5  17  18  19  20  21  22  23  24  25 0
 3-21G
 ****
 27  28  29  34  36  39  40  41  42  43  44  45  46 0
 3-21G
 ****


