%nproc=1
%NoSave
%Mem=1900MB
#P OB98/GEN NMR

erre ene a

0 1
  C      313.926    -546.183     466.359
  O      314.950    -545.217     466.604
  P      315.146    -543.918     465.675
  C      314.538    -542.307     467.584
  O      315.502    -542.661     466.605
  C      314.930    -541.032     468.340
  O      315.973    -541.308     469.294
  C      315.455    -539.908     467.451
  O      314.390    -539.238     466.807
  C      316.237    -539.070     468.464
  O      315.343    -538.218     469.202
  C      316.823    -540.148     469.379
  N      321.736    -538.849     469.962
  C      320.597    -538.318     470.455
  N      319.325    -538.716     470.258
  C      319.295    -539.804     469.457
  C      320.369    -540.453     468.880
  C      321.642    -539.934     469.153
  N      322.805    -540.463     468.638
  N      319.942    -541.515     468.107
  C      318.629    -541.517     468.236
  N      318.189    -540.504     469.048
  O      314.017    -543.676     464.722
  O      316.509    -544.194     464.879
  H      315.106    -537.474     468.625
  H      316.485    -543.730     464.019
  H      320.724    -537.455     471.104
  H      317.961    -542.231     467.774
  H      316.821    -539.834     470.437
  H      316.987    -538.431     467.997
  H      316.154    -540.317     466.706
  H      314.054    -540.693     468.906
  H      314.439    -543.138     468.291
  H      323.677    -540.012     468.852
  H      322.739    -541.244     467.994
  H      313.569    -542.156     467.082
  P      314.692    -538.199     465.624
  C      313.352    -539.305     463.733
  O      313.422    -538.225     464.646
  O      316.019    -538.356     464.950
  O      314.564    -536.766     466.334
  H      315.152    -536.134     465.876
  H      314.010    -539.106     462.881
  H      312.321    -539.397     463.380
  H      313.650    -540.239     464.214
  H      313.982    -546.957     467.096
  H      314.061    -546.607     465.386
  H      312.968    -545.709     466.412

 3  4  5  6  7  8  9  10  11  12  22  25  29  30  31  32 0
 6-311+G(2d,p)
 ****
 33  36  37 0
 6-311+G(2d,p)
 ****
 1  2  13  14  15  16  17  18  19  20  21  23  24  26 0
 3-21G
 ****
 27  28  34  35  38  39  40  41  42  43  44  45  46  47  48 0
 3-21G
 ****


