%nproc=1
%NoSave
%Mem=1900MB
#P OB98/GEN NMR

erre ene a

0 1
  C       -5.537      13.896    -169.542
  O       -6.881      13.462    -169.522
  H       -5.465      14.776    -170.186
  H       -4.888      13.114    -169.943
  H       -5.210      14.172    -168.535
  P       -7.251      12.139    -168.698
  C       -7.758      13.444    -166.531
  O       -8.271      12.584    -167.542
  C       -8.908      14.029    -165.701
  O       -8.336      14.618    -164.508
  C       -9.681      15.120    -166.456
  O      -11.087      14.888    -166.490
  C       -9.194      16.408    -165.804
  O      -10.105      17.485    -165.871
  C       -8.835      15.962    -164.382
  N       -7.852      16.819    -163.724
  C       -8.334      17.821    -162.887
  O       -9.520      18.025    -162.639
  N       -7.380      18.613    -162.303
  C       -6.033      18.512    -162.476
  O       -5.227      19.248    -161.920
  C       -5.585      17.449    -163.389
  C       -6.500      16.665    -163.963
  O       -6.092      11.325    -168.229
  O       -8.185      11.308    -169.700
  H       -9.614      18.304    -165.658
  H       -7.669      10.584    -170.101
  H       -7.719      19.336    -161.686
  H       -4.522      17.346    -163.557
  H       -6.204      15.869    -164.641
  H       -9.726      15.936    -163.753
  H       -8.280      16.729    -166.319
  H       -9.403      15.133    -167.517
  H       -9.566      13.212    -165.384
  H       -7.199      14.246    -167.022
  H       -7.080      12.883    -165.878
  P      -11.832      13.976    -167.568
  C      -10.995      11.567    -166.961
  O      -12.044      12.523    -166.932
  O      -11.282      14.035    -168.953
  O      -13.323      14.594    -167.609
  H      -13.645      14.481    -168.526
  H      -11.323      10.663    -166.492
  H      -10.146      11.953    -166.437
  H      -10.725      11.364    -167.976

 6  7  8  9  10  11  12  13  14  15  16  26  31  32  33  34  35 0
 6-311+G(2d,p)
 ****
 36  37 0
 6-311+G(2d,p)
 ****
 1  2  3  4  5  17  18  19  20  21  22  23  24  25 0
 3-21G
 ****
 27  28  29  30  38  39  40  41  42  43  44  45 0
 3-21G
 ****


