%nproc=1
%NoSave
%Mem=1900MB
#P OB98/GEN NMR

erre ene a

0 1
  C      521.027    -897.830     990.548
  O      519.678    -898.070     990.900
  H      521.079    -897.600     989.479
  H      521.629    -898.710     990.750
  H      521.410    -896.970     991.105
  P      519.384    -898.530     992.407
  C      517.632    -897.920     994.234
  O      518.141    -897.660     992.924
  C      516.831    -896.700     994.713
  O      517.668    -895.530     994.721
  C      515.651    -896.360     993.820
  O      514.535    -897.190     994.047
  C      515.394    -894.920     994.250
  O      514.572    -894.850     995.424
  C      516.819    -894.390     994.533
  N      517.288    -893.520     993.465
  C      516.798    -892.210     993.480
  O      516.003    -891.810     994.326
  N      517.211    -891.410     992.469
  C      518.021    -891.770     991.420
  O      518.306    -891.000     990.502
  C      518.497    -893.160     991.442
  C      518.125    -893.960     992.438
  O      520.627    -897.920     993.209
  O      519.245    -900.000     992.603
  H      521.246    -898.640     993.458
  H      515.118    -895.220     996.155
  H      516.856    -890.450     992.456
  H      519.140    -893.490     990.635
  H      518.458    -895.000     992.486
  H      516.824    -893.810     995.473
  H      514.887    -894.360     993.452
  H      515.964    -896.370     992.765
  H      516.491    -896.900     995.741
  H      518.471    -898.080     994.926
  H      517.018    -898.820     994.204
  P      513.182    -896.870     993.209
  C      510.819    -898.020     993.131
  O      512.186    -898.090     993.503
  O      513.696    -897.120     991.722
  O      512.637    -895.500     993.476
  H      514.441    -897.760     991.686
  H      510.326    -898.927     993.411
  H      510.744    -897.886     992.072
  H      510.356    -897.194     993.629

 6  7  8  9  10  11  12  13  14  15  16  27  31  32  33  34  35 0
 6-311+G(2d,p)
 ****
 36  37 0
 6-311+G(2d,p)
 ****
 1  2  3  4  5  17  18  19  20  21  22  23  24  25 0
 3-21G
 ****
 26  28  29  30  38  39  40  41  42  43  44  45 0
 3-21G
 ****


