%nproc=1
%NoSave
%Mem=1900MB
#P OB98/GEN NMR

erre ene a

0 1
  C      -76.727      68.530    -178.692
  O      -77.252      68.915    -179.965
  P      -78.733      69.534    -179.978
  C      -78.710      71.168    -181.990
  O      -79.120      69.902    -181.491
  C      -77.295      71.119    -182.580
  O      -77.145      69.984    -183.475
  C      -76.921      72.373    -183.372
  O      -75.520      72.594    -183.188
  C      -77.162      71.954    -184.810
  O      -76.439      72.783    -185.717
  C      -76.711      70.485    -184.756
  N      -77.236      69.682    -185.858
  C      -76.702      69.916    -187.127
  O      -75.876      70.817    -187.296
  N      -77.142      69.158    -188.182
  C      -78.075      68.278    -187.995
  N      -78.471      67.560    -189.082
  C      -78.711      68.037    -186.687
  C      -78.243      68.765    -185.674
  O      -78.544      70.959    -179.274
  O      -79.737      68.697    -179.252
  H      -76.811      73.690    -185.663
  H      -79.212      71.077    -178.574
  H      -79.500      67.308    -186.583
  H      -78.643      68.659    -184.676
  H      -75.615      70.417    -184.786
  H      -78.229      72.019    -185.050
  H      -77.479      73.263    -183.070
  H      -76.589      70.979    -181.755
  H      -78.006      67.749    -189.962
  H      -78.736      71.908    -181.187
  H      -79.190      66.851    -189.053
  H      -79.436      71.506    -182.737
  P      -75.044      74.017    -182.628
  C      -72.881      73.394    -181.392
  O      -73.442      73.921    -182.577
  O      -75.416      73.892    -181.071
  O      -75.627      75.251    -183.228
  H      -75.236      74.736    -180.622
  H      -71.805      73.270    -181.540
  H      -73.320      72.418    -181.162
  H      -73.042      74.085    -180.561
  H      -75.740      68.135    -178.818
  H      -77.358      67.783    -178.257
  H      -76.690      69.384    -178.048

 3  4  5  6  7  8  9  10  11  12  13  21  23  27  28  29  30  32 0
 6-311+G(2d,p)
 ****
 34  35 0
 6-311+G(2d,p)
 ****
 1  2  14  15  16  17  18  19  20  22  24  25  26 0
 3-21G
 ****
 31  33  36  37  38  39  40  41  42  43  44  45  46 0
 3-21G
 ****


