%nproc=1
%NoSave
%Mem=1900MB
#P OB98/GEN NMR

erre ene a

0 1
  C     -162.157     -11.747      32.229
  O     -162.704     -11.656      30.909
  P     -161.669     -11.642      29.681
  C     -161.071      -9.870      27.854
  O     -161.720     -10.153      29.081
  C     -161.694      -8.643      27.178
  O     -163.023      -8.978      26.677
  C     -161.834      -7.419      28.092
  O     -161.571      -6.264      27.284
  C     -163.298      -7.460      28.494
  O     -163.767      -6.189      28.918
  C     -163.930      -7.987      27.202
  N     -165.266      -8.539      27.410
  C     -166.343      -7.711      27.121
  O     -166.210      -6.538      26.781
  N     -167.584      -8.265      27.281
  C     -167.846      -9.513      27.769
  O     -168.981      -9.961      27.893
  C     -166.669     -10.302      28.165
  C     -165.455      -9.785      27.973
  O     -162.445     -12.531      28.605
  O     -160.313     -12.137      30.057
  H     -163.409     -12.396      28.612
  H     -163.280      -5.920      29.723
  H     -168.380      -7.691      27.045
  H     -166.839     -11.274      28.611
  H     -164.570     -10.329      28.275
  H     -164.002      -7.184      26.456
  H     -163.439      -8.174      29.312
  H     -161.146      -7.443      28.941
  H     -161.075      -8.387      26.308
  H     -161.163     -10.727      27.180
  H     -160.001      -9.722      28.036
  P     -160.108      -5.599      27.360
  C     -159.100      -3.496      28.552
  O     -160.230      -4.296      28.284
  O     -160.002      -4.982      25.883
  O     -158.997      -6.546      27.671
  H     -160.797      -4.493      25.617
  H     -159.434      -2.551      28.988
  H     -158.543      -3.278      27.638
  H     -158.449      -4.003      29.269
  H     -162.952     -11.746      32.945
  H     -161.515     -10.910      32.408
  H     -161.595     -12.653      32.321

 3  4  5  6  7  8  9  10  11  12  13  24  28  29  30  31  32 0
 6-311+G(2d,p)
 ****
 33  34 0
 6-311+G(2d,p)
 ****
 1  2  14  15  16  17  18  19  20  21  22  23  25  26  27 0
 3-21G
 ****
 35  36  37  38  39  40  41  42  43  44  45 0
 3-21G
 ****


