%nproc=1
%NoSave
%Mem=1900MB
#P OB98/GEN NMR

erre ene a

0 1
  C      120.247     196.381    -172.504
  O      120.730     195.887    -173.757
  P      120.931     194.303    -173.897
  C      118.471     193.481    -174.115
  O      119.719     193.710    -174.760
  C      117.711     192.358    -174.823
  O      116.578     191.923    -174.046
  C      117.136     192.775    -176.166
  O      118.144     192.792    -177.156
  C      116.064     191.715    -176.396
  O      116.587     190.575    -177.096
  C      115.639     191.331    -174.960
  N      114.276     191.731    -174.652
  C      113.309     190.724    -174.733
  O      113.629     189.583    -175.069
  N      112.005     191.043    -174.452
  C      111.690     192.264    -174.146
  N      110.382     192.520    -173.885
  C      112.676     193.363    -174.079
  C      113.938     193.028    -174.342
  O      120.633     193.763    -172.420
  O      122.294     193.905    -174.364
  H      117.483     190.428    -176.729
  H      121.179     192.979    -172.230
  H      112.367     194.364    -173.826
  H      114.730     193.770    -174.315
  H      115.710     190.244    -174.820
  H      115.240     192.106    -177.001
  H      116.666     193.764    -176.080
  H      118.394     191.506    -174.956
  H      109.732     191.745    -173.944
  H      117.873     194.395    -174.120
  H      110.025     193.434    -173.644
  H      118.655     193.231    -173.065
  P      118.397     194.165    -177.939
  C      120.145     195.452    -176.567
  O      119.925     194.545    -177.630
  O      117.604     195.222    -177.029
  O      117.971     194.229    -179.366
  H      117.604     196.097    -177.455
  H      121.211     195.460    -176.331
  H      119.590     195.144    -175.677
  H      119.843     196.458    -176.869
  H      120.161     197.447    -172.550
  H      120.931     196.112    -171.727
  H      119.288     195.954    -172.298

 3  4  5  6  7  8  9  10  11  12  13  21  23  27  28  29  30  32 0
 6-311+G(2d,p)
 ****
 34  35 0
 6-311+G(2d,p)
 ****
 1  2  14  15  16  17  18  19  20  22  24  25  26 0
 3-21G
 ****
 31  33  36  37  38  39  40  41  42  43  44  45  46 0
 3-21G
 ****


