%nproc=1
%NoSave
%Mem=1900MB
#P OB98/GEN NMR

erre ene a

0 1
  C      597.801    -270.784     970.217
  O      597.120    -269.547     970.300
  H      598.477    -270.869     971.070
  H      598.389    -270.829     969.295
  H      597.091    -271.617     970.246
  P      595.983    -269.210     969.224
  C      594.135    -268.871     970.980
  O      594.581    -269.650     969.877
  C      592.687    -269.226     971.331
  O      591.851    -268.959     970.167
  C      592.493    -270.690     971.733
  O      591.517    -270.738     972.773
  C      591.925    -271.326     970.472
  O      591.124    -272.477     970.762
  C      591.128    -270.174     969.872
  N      587.727    -270.667     966.164
  C      587.541    -270.449     967.517
  N      586.268    -270.365     967.957
  N      588.535    -270.309     968.369
  C      589.756    -270.398     967.788
  C      590.065    -270.618     966.464
  C      588.966    -270.778     965.539
  O      589.065    -270.989     964.335
  N      591.424    -270.669     966.271
  C      591.936    -270.489     967.475
  N      590.967    -270.327     968.429
  O      596.223    -269.752     967.851
  O      595.904    -267.612     969.228
  H      590.561    -272.248     971.525
  H      596.393    -267.242     968.468
  H      586.930    -270.772     965.565
  H      592.995    -270.464     967.708
  H      590.117    -270.087     970.303
  H      592.745    -271.630     969.810
  H      585.466    -270.443     967.355
  H      593.411    -271.178     972.048
  H      586.117    -270.184     968.942
  H      592.350    -268.546     972.126
  H      594.201    -267.814     970.706
  H      594.782    -269.050     971.839
  P      591.970    -271.301     974.219
  C      592.765    -268.956     974.931
  O      593.111    -270.325     974.789
  O      592.272    -272.759     974.280
  O      590.708    -270.922     975.144
  H      590.649    -271.588     975.860
  H      593.603    -268.414     975.317
  H      591.940    -268.865     975.606
  H      592.491    -268.557     973.977

 6  7  8  9  10  11  12  13  14  15  26  29  33  34 0
 6-311+G(2d,p)
 ****
 36  38  39  40  41 0
 6-311+G(2d,p)
 ****
 1  2  3  4  5  16  17  18  19  20  21  22  23  24  25 0
 3-21G
 ****
 27  28  30  31  32  35  37  42  43  44  45  46  47 0
 3-21G
 ****
 48  49 0
 3-21G
 ****


