%nproc=1
%NoSave
%Mem=1900MB
#P OB98/GEN NMR

erre ene a

0 1
  C     -433.289    1035.244    -375.579
  O     -434.194    1035.733    -374.603
  P     -434.448    1034.920    -373.237
  C     -432.395    1035.830    -371.945
  O     -433.819    1035.842    -372.082
  C     -431.917    1037.231    -371.531
  O     -432.062    1038.151    -372.638
  C     -432.701    1037.856    -370.380
  O     -432.336    1037.288    -369.140
  C     -432.362    1039.324    -370.566
  O     -431.054    1039.606    -370.002
  C     -432.305    1039.461    -372.101
  N     -433.523    1040.044    -372.647
  C     -433.472    1041.378    -373.032
  O     -432.428    1042.037    -372.905
  N     -434.587    1041.954    -373.583
  C     -435.679    1041.267    -373.716
  N     -436.740    1041.863    -374.328
  C     -435.803    1039.862    -373.277
  C     -434.702    1039.307    -372.765
  O     -433.950    1033.508    -373.246
  O     -436.015    1035.049    -372.974
  H     -430.932    1040.572    -369.998
  H     -436.556    1034.342    -373.412
  H     -436.738    1039.338    -373.391
  H     -434.699    1038.294    -372.423
  H     -431.446    1040.071    -372.390
  H     -433.059    1040.009    -370.072
  H     -433.789    1037.708    -370.535
  H     -430.852    1037.157    -371.268
  H     -436.547    1042.758    -374.774
  H     -431.952    1035.583    -372.920
  H     -437.497    1041.325    -374.713
  H     -432.102    1035.085    -371.213
  P     -433.466    1037.161    -368.002
  C     -433.856    1034.724    -368.784
  O     -433.611    1035.598    -367.685
  O     -434.810    1037.552    -368.785
  O     -433.227    1038.038    -366.808
  H     -435.065    1038.483    -368.593
  H     -433.702    1033.694    -368.447
  H     -433.153    1034.927    -369.600
  H     -434.870    1034.830    -369.135
  H     -433.259    1035.920    -376.408
  H     -433.613    1034.282    -375.916
  H     -432.312    1035.161    -375.150

 3  4  5  6  7  8  9  10  11  12  13  23  27  28  29  30  32 0
 6-311+G(2d,p)
 ****
 34  35 0
 6-311+G(2d,p)
 ****
 1  2  14  15  16  17  18  19  20  21  22  24  25  26 0
 3-21G
 ****
 31  33  36  37  38  39  40  41  42  43  44  45  46 0
 3-21G
 ****


