%nproc=1
%NoSave
%Mem=1900MB
#P OB98/GEN NMR

erre ene a

0 1
  C      695.534    -894.432     319.501
  O      695.933    -895.192     320.626
  H      695.005    -895.092     318.816
  H      696.415    -894.022     318.993
  H      694.858    -893.612     319.807
  P      696.593    -894.432     321.885
  C      696.296    -894.472     324.449
  O      696.010    -895.122     323.212
  C      695.501    -895.132     325.576
  O      694.081    -895.112     325.274
  C      695.832    -896.612     325.764
  O      697.076    -896.762     326.455
  C      694.615    -897.092     326.558
  O      694.738    -896.762     327.941
  C      693.480    -896.282     325.877
  N      692.723    -897.062     324.888
  C      691.655    -897.802     325.357
  O      691.334    -897.822     326.551
  N      690.966    -898.522     324.421
  C      691.313    -898.662     323.104
  O      690.700    -899.392     322.320
  C      692.486    -897.882     322.667
  C      693.120    -897.152     323.549
  O      696.517    -892.942     321.848
  O      698.114    -894.942     321.860
  H      695.527    -897.232     328.270
  H      698.685    -894.232     321.504
  H      690.189    -899.072     324.742
  H      692.789    -897.972     321.624
  H      693.992    -896.562     323.246
  H      692.772    -895.922     326.630
  H      694.480    -898.162     326.488
  H      695.860    -897.132     324.804
  H      695.653    -894.572     326.505
  H      695.983    -893.412     324.354
  H      697.375    -894.522     324.646
  P      697.727    -898.212     326.580
  C      700.092    -899.192     326.894
  O      699.322    -898.042     326.531
  O      697.169    -899.262     325.667
  O      697.448    -898.622     328.121
  H      696.923    -899.422     328.165
  H      701.134    -898.960     326.824
  H      699.861    -900.000     326.231
  H      699.857    -899.477     327.898

 6  7  8  9  10  11  12  13  14  15  16  26  31  32  33  34  35 0
 6-311+G(2d,p)
 ****
 36  37 0
 6-311+G(2d,p)
 ****
 1  2  3  4  5  17  18  19  20  21  22  23  24  25 0
 3-21G
 ****
 27  28  29  30  38  39  40  41  42  43  44  45 0
 3-21G
 ****


