%nproc=1
%NoSave
%Mem=1900MB
#P OB98/GEN NMR

erre ene a

0 1
  C      -69.994     336.314     -32.840
  O      -69.636     335.471     -31.734
  P      -68.091     335.393     -31.318
  C      -67.841     332.866     -31.884
  O      -67.414     334.196     -32.141
  C      -66.981     331.869     -32.663
  O      -65.597     332.285     -32.711
  C      -66.975     330.467     -32.066
  O      -68.107     329.716     -32.473
  C      -65.717     329.886     -32.695
  O      -65.999     329.459     -34.047
  C      -64.770     331.094     -32.701
  N      -60.037     330.297     -31.104
  C      -60.580     330.172     -32.370
  N      -59.740     329.787     -33.352
  N      -61.840     330.406     -32.641
  C      -62.559     330.799     -31.563
  C      -62.134     330.954     -30.265
  C      -60.741     330.680     -29.976
  O      -60.208     330.756     -28.868
  N      -63.155     331.359     -29.448
  C      -64.195     331.470     -30.253
  N      -63.887     331.122     -31.548
  O      -68.156     334.806     -29.828
  O      -67.375     336.701     -31.366
  H      -65.172     329.071     -34.391
  H      -67.379     335.108     -29.322
  H      -59.062     330.098     -30.949
  H      -65.182     331.792     -29.951
  H      -64.134     331.126     -33.595
  H      -65.348     329.011     -32.159
  H      -58.755     329.642     -33.223
  H      -66.871     330.504     -30.974
  H      -60.115     329.729     -34.293
  H      -67.363     331.820     -33.693
  H      -68.894     332.745     -32.163
  H      -67.799     332.680     -30.805
  P      -69.394     329.714     -31.509
  C      -68.921     327.333     -30.593
  O      -69.047     328.708     -30.310
  O      -70.486     328.927     -32.374
  O      -69.873     331.073     -31.111
  H      -71.380     329.264     -32.168
  H      -68.523     326.831     -29.705
  H      -68.226     327.166     -31.424
  H      -69.897     326.906     -30.833
  H      -71.051     336.264     -32.999
  H      -69.485     335.982     -33.721
  H      -69.713     337.324     -32.625

 3  4  5  6  7  8  9  10  11  12  23  26  30  31 0
 6-311+G(2d,p)
 ****
 33  35  36  37  38 0
 6-311+G(2d,p)
 ****
 1  2  13  14  15  16  17  18  19  20  21  22  24  25 0
 3-21G
 ****
 27  28  29  32  34  39  40  41  42  43  44  45  46  47  48  49 0
 3-21G
 ****


