%nproc=1
%NoSave
%Mem=1900MB
#P OB98/GEN NMR

erre ene a

0 1
  C       -0.567    -163.642    -253.550
  O       -0.717    -165.065    -253.505
  P       -2.103    -165.617    -252.903
  C       -1.056    -165.881    -250.539
  O       -2.109    -165.326    -251.321
  C       -1.306    -165.699    -249.037
  O       -1.029    -164.323    -248.672
  C       -2.739    -166.005    -248.582
  O       -2.686    -166.622    -247.290
  C       -3.348    -164.626    -248.401
  O       -4.463    -164.642    -247.514
  C       -2.137    -163.851    -247.890
  N       -2.736    -159.495    -245.386
  C       -2.501    -160.769    -244.902
  N       -2.438    -160.899    -243.557
  N       -2.340    -161.816    -245.665
  C       -2.392    -161.531    -246.989
  C       -2.610    -160.310    -247.592
  C       -2.827    -159.166    -246.731
  O       -3.093    -158.022    -247.101
  N       -2.594    -160.420    -248.961
  C       -2.381    -161.701    -249.183
  N       -2.258    -162.418    -248.020
  O       -1.940    -167.205    -253.009
  O       -3.311    -165.142    -253.642
  H       -4.860    -163.750    -247.536
  H       -2.678    -167.583    -253.524
  H       -2.874    -158.726    -244.751
  H       -2.328    -162.166    -250.158
  H       -1.932    -164.083    -246.835
  H       -3.691    -164.247    -249.373
  H       -2.490    -160.125    -242.916
  H       -3.308    -166.630    -249.274
  H       -2.223    -161.817    -243.181
  H       -0.593    -166.330    -248.495
  H       -0.113    -165.397    -250.807
  H       -0.967    -166.944    -250.781
  P       -2.707    -168.233    -247.266
  C       -5.266    -167.932    -246.898
  O       -4.230    -168.650    -247.545
  O       -2.491    -168.577    -245.716
  O       -1.677    -168.869    -248.141
  H       -2.073    -169.456    -245.622
  H       -4.903    -167.020    -246.418
  H       -5.722    -168.573    -246.139
  H       -6.023    -167.665    -247.641
  H        0.388    -163.397    -253.967
  H       -0.636    -163.245    -252.559
  H       -1.340    -163.221    -254.158

 3  4  5  6  7  8  9  10  11  12  23  26  30  31  33  0
 6-311+G(2d,p)
 ****
 35  36  37  38 0
 6-311+G(2d,p)
 ****
 1  2  13  14  15  16  17  18  19  20  21  22  24  25  27  28  29 0
 3-21G
 ****
 32  34  39  40  41  42  43  44  45  46  47  48  49 0
 3-21G
 ****


