%nproc=1
%NoSave
%Mem=1900MB
#P OB98/GEN NMR

erre ene a

0 1
  C      -80.082    -865.808    -188.877
  O      -81.353    -865.986    -189.461
  H      -79.987    -866.498    -188.037
  H      -79.975    -864.788    -188.503
  H      -79.292    -866.024    -189.599
  P      -81.747    -865.083    -190.726
  C      -81.772    -867.127    -192.318
  O      -81.160    -865.891    -191.986
  C      -80.983    -867.829    -193.417
  O      -79.620    -868.079    -193.008
  C      -81.517    -869.201    -193.820
  O      -82.709    -869.148    -194.586
  C      -80.334    -869.720    -194.617
  O      -80.311    -869.087    -195.911
  C      -79.154    -869.249    -193.739
  N      -78.698    -870.284    -192.808
  C      -77.574    -871.026    -193.197
  O      -77.023    -870.810    -194.279
  N      -77.124    -872.022    -192.371
  C      -77.743    -872.276    -191.262
  N      -77.259    -873.280    -190.483
  C      -78.943    -871.532    -190.822
  C      -79.357    -870.561    -191.635
  O      -81.362    -863.641    -190.652
  O      -83.325    -865.311    -190.907
  H      -81.137    -869.331    -196.362
  H      -83.623    -864.762    -191.673
  H      -79.445    -871.802    -189.906
  H      -80.235    -869.978    -191.379
  H      -78.307    -868.933    -194.357
  H      -80.369    -870.797    -194.789
  H      -81.650    -869.841    -192.937
  H      -80.939    -867.148    -194.278
  H      -76.436    -873.774    -190.813
  H      -82.799    -866.924    -192.643
  H      -77.725    -873.598    -189.644
  H      -81.800    -867.780    -191.441
  P      -84.098    -869.268    -193.783
  C      -84.992    -866.974    -194.641
  O      -84.600    -867.766    -193.534
  O      -83.638    -869.768    -192.336
  O      -85.120    -870.162    -194.406
  H      -83.757    -870.738    -192.254
  H      -85.296    -866.007    -194.298
  H      -85.808    -867.446    -195.146
  H      -84.167    -866.870    -195.315

 6  7  8  9  10  11  12  13  14  15  16  26  30  31  32  33  35 0
 6-311+G(2d,p)
 ****
 37  38 0
 6-311+G(2d,p)
 ****
 1  2  3  4  5  17  18  19  20  21  22  23  24  25 0
 3-21G
 ****
 27  28  29  34  36  39  40  41  42  43  44  45  46 0
 3-21G
 ****


