%nproc=1
%NoSave
%Mem=1900MB
#P OB98/GEN NMR

erre ene a

0 1
  C      157.520     -72.787     -28.293
  O      158.809     -72.796     -28.892
  P      159.606     -71.403     -28.951
  C      159.136     -69.211     -30.258
  O      159.027     -70.630     -30.232
  C      158.350     -68.636     -31.428
  O      156.952     -68.573     -31.093
  C      158.740     -67.216     -31.815
  O      159.904     -67.187     -32.626
  C      157.513     -66.780     -32.603
  O      157.601     -67.277     -33.952
  C      156.370     -67.480     -31.848
  N      152.743     -63.976     -31.393
  C      153.178     -64.661     -32.511
  N      152.536     -64.392     -33.668
  N      154.155     -65.527     -32.497
  C      154.676     -65.727     -31.264
  C      154.332     -65.110     -30.081
  C      153.283     -64.112     -30.121
  O      152.900     -63.429     -29.174
  N      155.077     -65.585     -29.034
  C      155.845     -66.513     -29.571
  N      155.660     -66.614     -30.928
  O      161.072     -71.845     -29.419
  O      159.638     -70.635     -27.673
  H      156.889     -66.844     -34.461
  H      161.728     -71.188     -29.118
  H      151.975     -63.332     -31.457
  H      156.542     -67.128     -29.020
  H      155.647     -67.920     -32.542
  H      157.412     -65.692     -32.669
  H      151.696     -63.836     -33.717
  H      158.852     -66.582     -30.929
  H      152.816     -64.910     -34.491
  H      158.464     -69.313     -32.285
  H      160.189     -68.933     -30.365
  H      158.764     -68.812     -29.308
  P      160.733     -65.812     -32.645
  C      160.087     -63.458     -33.536
  O      159.944     -64.859     -33.664
  O      162.070     -66.199     -33.432
  O      161.014     -65.245     -31.294
  H      162.802     -65.608     -33.169
  H      161.105     -63.186     -33.241
  H      159.379     -63.085     -32.794
  H      159.869     -62.994     -34.500
  H      157.107     -73.774     -28.321
  H      156.882     -72.117     -28.830
  H      157.601     -72.463     -27.276

 3  4  5  6  7  8  9  10  11  12  23  26  30  31  33  0
 6-311+G(2d,p)
 ****
 35  36  37  38 0
 6-311+G(2d,p)
 ****
 1  2  13  14  15  16  17  18  19  20  21  22  24  25  27  28  29 0
 3-21G
 ****
 32  34  39  40  41  42  43  44  45  46  47  48  49 0
 3-21G
 ****


