%nproc=1
%NoSave
%Mem=1900MB
#P OB98/GEN NMR

erre ene a

0 1
  C      490.986     156.434    -282.798
  O      490.979     156.191    -284.204
  P      491.028     154.669    -284.712
  C      488.472     154.386    -285.096
  O      489.775     154.421    -285.673
  C      487.403     154.533    -286.178
  O      487.247     155.911    -286.600
  C      487.707     153.744    -287.450
  O      487.321     152.379    -287.326
  C      486.811     154.445    -288.455
  O      485.456     153.972    -288.322
  C      486.915     155.909    -288.011
  N      487.815     158.606    -292.202
  C      486.654     157.989    -291.769
  N      485.568     158.131    -292.565
  N      486.553     157.314    -290.655
  C      487.720     157.279    -289.953
  C      488.934     157.844    -290.278
  C      489.024     158.572    -291.524
  O      490.035     159.126    -291.962
  N      489.877     157.589    -289.316
  C      489.233     156.879    -288.403
  N      487.923     156.656    -288.745
  O      490.645     153.847    -283.396
  O      492.359     154.251    -285.259
  H      485.449     153.048    -288.637
  H      491.050     152.956    -283.426
  H      487.833     159.108    -293.069
  H      489.665     156.528    -287.472
  H      485.963     156.451    -288.124
  H      487.111     154.251    -289.487
  H      485.554     158.676    -293.409
  H      488.759     153.846    -287.745
  H      484.696     157.716    -292.245
  H      486.444     154.186    -285.764
  H      488.362     155.185    -284.359
  H      488.355     153.451    -284.538
  P      488.340     151.255    -287.855
  C      488.750     150.220    -285.509
  O      488.234     150.040    -286.811
  O      489.769     151.912    -287.552
  O      488.190     150.902    -289.294
  H      490.423     151.611    -288.211
  H      488.446     149.365    -284.890
  H      488.345     151.134    -285.051
  H      489.842     150.271    -285.533
  H      490.950     157.488    -282.618
  H      491.880     156.029    -282.371
  H      490.134     155.967    -282.351

 3  4  5  6  7  8  9  10  11  12  23  26  30  31 0
 6-311+G(2d,p)
 ****
 33  35  36  37  38 0
 6-311+G(2d,p)
 ****
 1  2  13  14  15  16  17  18  19  20  21  22  24  25 0
 3-21G
 ****
 27  28  29  32  34  39  40  41  42  43  44  45  46  47  48  49 0
 3-21G
 ****


