%nproc=1
%NoSave
%Mem=1900MB
#P OB98/GEN NMR

erre ene a

0 1
  C       17.403     192.450    -642.471
  O       18.592     192.894    -643.098
  H       17.636     191.570    -641.863
  H       16.669     192.172    -643.227
  H       16.997     193.231    -641.825
  P       18.488     194.238    -643.969
  C       20.186     195.748    -642.705
  O       19.926     194.960    -643.863
  C       21.639     195.589    -642.266
  O       21.771     194.349    -641.501
  C       22.650     195.525    -643.419
  O       23.857     196.173    -642.990
  C       22.929     194.036    -643.542
  O       24.171     193.762    -644.192
  C       22.880     193.630    -642.069
  N       25.393     189.383    -641.074
  C       25.831     190.700    -641.107
  N       27.134     190.914    -640.845
  N       25.050     191.705    -641.391
  C       23.760     191.351    -641.598
  C       23.206     190.085    -641.589
  C       24.079     188.973    -641.305
  O       23.764     187.788    -641.269
  N       21.866     190.141    -641.877
  C       21.609     191.423    -642.058
  N       22.729     192.195    -641.897
  O       17.535     195.163    -643.077
  O       17.965     194.066    -645.357
  H       24.088     194.043    -645.127
  H       16.605     195.066    -643.365
  H       26.040     188.642    -640.858
  H       20.640     191.840    -642.309
  H       23.788     193.916    -641.528
  H       22.132     193.540    -644.110
  H       27.785     190.190    -640.582
  H       22.302     195.976    -644.353
  H       27.466     191.869    -640.835
  H       21.885     196.411    -641.574
  H       19.523     195.413    -641.897
  H       19.969     196.799    -642.930
  P       24.963     196.511    -644.099
  C       24.713     199.098    -644.260
  O       25.504     197.996    -643.825
  O       24.087     196.693    -645.429
  O       26.010     195.465    -644.266
  H       24.623     196.470    -646.213
  H       25.206     200.013    -644.006
  H       23.757     199.062    -643.780
  H       24.582     199.046    -645.321

 6  7  8  9  10  11  12  13  14  15  26  29  33  34 0
 6-311+G(2d,p)
 ****
 36  38  39  40  41 0
 6-311+G(2d,p)
 ****
 1  2  3  4  5  16  17  18  19  20  21  22  23  24  25 0
 3-21G
 ****
 27  28  30  31  32  35  37  42  43  44  45  46  47 0
 3-21G
 ****
 48  49 0
 3-21G
 ****


