%nproc=1
%NoSave
%Mem=1900MB
#P OB98/GEN NMR

erre ene a

0 1
  C      591.518     188.411    -116.374
  O      590.127     188.093    -116.302
  P      589.694     186.550    -116.384
  C      590.190     186.161    -118.968
  O      589.273     186.190    -117.888
  C      589.589     185.355    -120.126
  O      589.512     183.955    -119.765
  C      588.179     185.796    -120.509
  O      588.191     186.866    -121.427
  C      587.591     184.518    -121.063
  O      588.063     184.290    -122.401
  C      588.177     183.465    -120.084
  N      587.457     183.194    -118.828
  C      586.258     182.477    -118.848
  O      585.735     182.045    -119.878
  N      585.663     182.265    -117.637
  C      586.210     182.522    -116.409
  O      585.654     182.247    -115.347
  C      587.541     183.136    -116.430
  C      588.087     183.458    -117.620
  O      588.306     186.510    -115.585
  O      590.691     185.592    -115.826
  H      587.936     185.122    -122.897
  H      588.402     185.954    -114.786
  H      584.763     181.803    -117.642
  H      588.017     183.327    -115.483
  H      589.064     183.913    -117.640
  H      588.293     182.502    -120.596
  H      586.497     184.577    -121.128
  H      587.612     186.071    -119.604
  H      590.251     185.451    -120.991
  H      591.141     185.721    -118.653
  H      590.401     187.189    -119.285
  P      588.414     188.369    -120.912
  C      586.291     189.155    -122.129
  O      587.691     189.312    -122.001
  O      589.816     188.740    -120.574
  O      587.432     188.479    -119.657
  H      587.921     188.311    -118.808
  H      585.904     189.944    -122.772
  H      585.815     189.222    -121.148
  H      586.061     188.189    -122.596
  H      591.645     189.471    -116.306
  H      591.916     188.063    -117.304
  H      592.035     187.937    -115.566

 3  4  5  6  7  8  9  10  11  12  13  23  28  29  30  31  32 0
 6-311+G(2d,p)
 ****
 33  34 0
 6-311+G(2d,p)
 ****
 1  2  14  15  16  17  18  19  20  21  22  24  25  26  27 0
 3-21G
 ****
 35  36  37  38  39  40  41  42  43  44  45 0
 3-21G
 ****


