%nproc=1
%NoSave
%Mem=1900MB
#P OB98/GEN NMR

erre ene a

0 1
  C     -326.078    -172.478     175.893
  O     -327.053    -171.463     175.967
  H     -325.672    -172.646     176.894
  H     -325.266    -172.159     175.234
  H     -326.502    -173.417     175.525
  P     -328.117    -171.331     174.778
  C     -327.447    -168.914     174.161
  O     -327.551    -170.262     173.718
  C     -326.990    -167.984     173.037
  O     -325.646    -168.332     172.636
  C     -327.869    -168.093     171.788
  O     -329.012    -167.258     171.797
  C     -326.897    -167.683     170.684
  O     -326.905    -166.259     170.485
  C     -325.537    -168.146     171.217
  N     -321.834    -170.510     168.603
  C     -321.964    -169.165     168.894
  N     -321.007    -168.354     168.396
  N     -322.954    -168.675     169.596
  C     -323.883    -169.594     169.942
  C     -323.873    -170.951     169.691
  C     -322.738    -171.496     168.979
  O     -322.569    -172.680     168.709
  N     -325.012    -171.559     170.162
  C     -325.742    -170.562     170.614
  N     -325.070    -169.365     170.576
  O     -329.333    -170.532     175.454
  O     -328.595    -172.624     174.190
  H     -327.783    -166.009     170.141
  H     -330.173    -170.811     175.043
  H     -321.038    -170.832     168.082
  H     -326.742    -170.656     171.022
  H     -324.766    -167.382     171.054
  H     -327.182    -168.136     169.729
  H     -320.274    -168.667     167.779
  H     -328.165    -169.132     171.614
  H     -321.166    -167.345     168.426
  H     -326.953    -166.953     173.415
  H     -326.715    -168.910     174.972
  H     -328.397    -168.573     174.577
  P     -330.104    -167.347     170.636
  C     -329.530    -164.909     169.839
  O     -329.740    -166.267     169.518
  O     -331.416    -166.738     171.324
  O     -330.345    -168.713     170.083
  H     -332.003    -167.451     171.634
  H     -329.299    -164.363     168.948
  H     -328.716    -164.827     170.528
  H     -330.416    -164.507     170.284

 6  7  8  9  10  11  12  13  14  15  26  29  33  34 0
 6-311+G(2d,p)
 ****
 36  38  39  40  41 0
 6-311+G(2d,p)
 ****
 1  2  3  4  5  16  17  18  19  20  21  22  23  24  25 0
 3-21G
 ****
 27  28  30  31  32  35  37  42  43  44  45  46  47 0
 3-21G
 ****
 48  49 0
 3-21G
 ****


