%nproc=1
%NoSave
%Mem=1900MB
#P OB98/GEN NMR

erre ene a

0 1
  C      604.665     149.603    -606.358
  O      605.882     150.028    -605.786
  H      604.551     148.528    -606.185
  H      604.672     149.787    -607.435
  H      603.824     150.126    -605.898
  P      606.186     151.603    -605.777
  C      606.655     151.586    -603.220
  O      605.882     152.123    -604.286
  C      606.607     152.511    -602.011
  O      607.297     153.745    -602.329
  C      605.187     152.866    -601.565
  O      605.149     152.921    -600.132
  C      604.978     154.268    -602.124
  O      604.002     155.013    -601.393
  C      606.401     154.843    -602.061
  N      606.578     155.934    -603.016
  C      605.820     157.088    -602.788
  O      605.047     157.146    -601.833
  N      605.913     158.128    -603.684
  C      606.623     157.985    -604.762
  N      606.647     159.041    -605.624
  C      607.385     156.762    -605.071
  C      607.316     155.786    -604.166
  O      604.978     152.220    -606.624
  O      607.525     152.000    -606.307
  H      603.840     155.859    -601.877
  H      605.263     153.017    -607.115
  H      607.940     156.683    -605.993
  H      607.838     154.841    -604.313
  H      606.621     155.215    -601.053
  H      604.637     154.201    -603.165
  H      604.434     152.166    -601.922
  H      607.161     152.040    -601.189
  H      606.104     159.857    -605.378
  H      607.697     151.491    -603.551
  H      607.132     159.023    -606.505
  H      606.273     150.586    -602.963
  P      604.895     151.540    -599.372
  C      606.629     151.836    -597.449
  O      606.262     151.119    -598.624
  O      604.782     150.469    -600.555
  O      603.679     151.537    -598.517
  H      603.857     150.174    -600.657
  H      607.550     151.448    -597.067
  H      605.863     151.726    -596.710
  H      606.750     152.872    -597.687

 6  7  8  9  10  11  12  13  14  15  16  26  30  31  32  33  35 0
 6-311+G(2d,p)
 ****
 37  38 0
 6-311+G(2d,p)
 ****
 1  2  3  4  5  17  18  19  20  21  22  23  24  25 0
 3-21G
 ****
 27  28  29  34  36  39  40  41  42  43  44  45  46 0
 3-21G
 ****


