%nproc=1
%NoSave
%Mem=1900MB
#P OB98/GEN NMR

erre ene a

0 1
  C     -645.340     151.697    -899.395
  O     -644.860     151.535    -898.065
  P     -644.398     152.827    -897.255
  C     -646.111     152.700    -895.315
  O     -645.670     153.429    -896.465
  C     -647.075     151.581    -895.735
  O     -646.378     150.641    -896.595
  C     -647.636     150.746    -894.575
  O     -648.836     151.170    -893.965
  C     -647.961     149.431    -895.295
  O     -649.266     149.541    -895.935
  C     -646.892     149.319    -896.345
  N     -645.497     144.424    -895.655
  C     -646.668     144.981    -896.055
  N     -646.955     146.301    -896.225
  C     -645.883     147.046    -895.935
  C     -644.639     146.620    -895.515
  C     -644.473     145.233    -895.365
  N     -643.288     144.658    -894.955
  N     -643.777     147.707    -895.305
  C     -644.517     148.765    -895.585
  N     -645.792     148.422    -895.975
  O     -643.570     153.822    -898.005
  O     -643.530     152.186    -896.065
  H     -649.178     150.238    -896.605
  H     -642.760     152.788    -895.865
  H     -647.473     144.293    -896.295
  H     -644.166     149.779    -895.505
  H     -647.284     148.936    -897.305
  H     -648.029     148.595    -894.595
  H     -646.867     150.577    -893.825
  H     -647.903     152.018    -896.325
  H     -646.615     153.381    -894.635
  H     -643.256     143.653    -894.855
  H     -642.506     145.259    -894.675
  H     -645.209     152.318    -894.805
  P     -648.815     152.204    -892.705
  C     -650.970     153.397    -893.565
  O     -649.611     153.498    -893.195
  O     -647.451     152.488    -892.165
  O     -649.809     151.513    -891.685
  H     -650.746     151.528    -891.955
  H     -651.387     154.412    -893.655
  H     -651.552     152.843    -892.835
  H     -651.065     152.881    -894.545
  H     -645.607     150.742    -899.797
  H     -644.574     152.136    -900.000
  H     -646.199     152.335    -899.389

 3  4  5  6  7  8  9  10  11  12  22  25  29  30  31  32 0
 6-311+G(2d,p)
 ****
 33  36  37 0
 6-311+G(2d,p)
 ****
 1  2  13  14  15  16  17  18  19  20  21  23  24  26 0
 3-21G
 ****
 27  28  34  35  38  39  40  41  42  43  44  45  46  47  48 0
 3-21G
 ****


