%nproc=1
%NoSave
%Mem=1900MB
#P OB98/GEN NMR

erre ene a

0 1
  C      485.645    -628.442     229.465
  O      485.027    -627.993     230.660
  P      485.304    -626.466     231.098
  C      486.380    -627.258     233.346
  O      485.395    -626.474     232.698
  C      486.994    -626.475     234.499
  O      487.696    -625.316     234.006
  C      485.976    -625.955     235.514
  O      485.622    -626.978     236.426
  C      486.740    -624.793     236.142
  O      487.657    -625.271     237.154
  C      487.498    -624.215     234.940
  N      486.681    -619.228     235.021
  C      487.297    -620.044     235.953
  N      487.807    -619.433     237.039
  N      487.412    -621.341     235.825
  C      486.841    -621.819     234.694
  C      486.180    -621.113     233.706
  C      486.117    -619.676     233.835
  O      485.668    -618.901     232.992
  N      485.716    -621.950     232.719
  C      486.113    -623.149     233.100
  N      486.821    -623.121     234.277
  O      483.916    -625.746     230.781
  O      486.466    -625.816     230.416
  H      488.135    -624.513     237.535
  H      483.957    -625.278     229.924
  H      486.643    -618.230     235.164
  H      485.943    -624.057     232.543
  H      488.501    -623.854     235.219
  H      486.074    -624.086     236.641
  H      487.741    -618.437     237.218
  H      485.089    -625.566     234.995
  H      488.265    -620.010     237.738
  H      487.730    -627.118     234.996
  H      487.166    -627.514     232.624
  H      485.920    -628.186     233.707
  P      484.060    -627.304     236.604
  C      483.866    -626.958     239.173
  O      483.861    -627.868     238.089
  O      483.846    -628.588     235.670
  O      483.148    -626.191     236.214
  H      482.965    -628.548     235.253
  H      483.227    -627.352     239.966
  H      483.481    -625.971     238.874
  H      484.880    -626.850     239.552
  H      485.382    -629.464     229.290
  H      486.708    -628.358     229.560
  H      485.312    -627.842     228.644

 3  4  5  6  7  8  9  10  11  12  23  26  30  31 0
 6-311+G(2d,p)
 ****
 33  35  36  37  38 0
 6-311+G(2d,p)
 ****
 1  2  13  14  15  16  17  18  19  20  21  22  24  25 0
 3-21G
 ****
 27  28  29  32  34  39  40  41  42  43  44  45  46  47  48  49 0
 3-21G
 ****


