%nproc=1
%NoSave
%Mem=1900MB
#P OB98/GEN NMR

erre ene a

0 1
  C      153.624    -109.597     133.411
  O      153.605    -109.182     134.761
  H      153.846    -110.667     133.380
  H      154.403    -109.064     132.860
  H      152.652    -109.428     132.943
  P      153.303    -107.639     135.084
  C      150.808    -108.253     135.422
  O      151.975    -107.681     135.991
  C      149.971    -108.929     136.503
  O      150.649    -110.080     137.050
  C      149.664    -108.057     137.716
  O      148.694    -107.053     137.468
  C      149.165    -109.116     138.680
  O      147.828    -109.508     138.322
  C      150.175    -110.255     138.415
  N      151.297    -110.244     139.352
  C      150.981    -110.371     140.710
  O      149.812    -110.476     141.076
  N      152.000    -110.343     141.633
  C      153.224    -110.176     141.237
  N      154.191    -110.148     142.194
  C      153.600    -110.018     139.818
  C      152.600    -110.065     138.941
  O      153.246    -106.722     133.905
  O      154.415    -107.229     136.159
  H      147.335    -108.689     138.135
  H      154.278    -106.277     136.386
  H      154.630    -109.853     139.543
  H      152.797    -109.949     137.880
  H      149.683    -111.235     138.464
  H      149.135    -108.776     139.718
  H      150.581    -107.617     138.124
  H      149.051    -109.293     136.027
  H      153.904    -110.259     143.156
  H      151.118    -108.973     134.658
  H      155.161    -109.949     141.983
  H      150.200    -107.475     134.952
  P      148.734    -105.752     138.412
  C      150.749    -104.637     137.181
  O      149.377    -104.579     137.532
  O      149.873    -106.113     139.474
  O      147.433    -105.396     139.059
  H      149.477    -106.437     140.307
  H      151.004    -103.778     136.597
  H      150.934    -105.523     136.611
  H      151.344    -104.654     138.070

 6  7  8  9  10  11  12  13  14  15  16  26  30  31  32  33  35 0
 6-311+G(2d,p)
 ****
 37  38 0
 6-311+G(2d,p)
 ****
 1  2  3  4  5  17  18  19  20  21  22  23  24  25 0
 3-21G
 ****
 27  28  29  34  36  39  40  41  42  43  44  45  46 0
 3-21G
 ****


