%nproc=1
%NoSave
%Mem=1900MB
#P OB98/GEN NMR

erre ene a

0 1
  C     -178.569     -46.734     255.712
  O     -179.710     -47.301     256.380
  P     -180.961     -47.794     255.503
  C     -182.920     -46.677     256.817
  O     -182.283     -47.878     256.408
  C     -184.162     -46.968     257.674
  O     -185.049     -47.890     256.977
  C     -183.854     -47.588     259.045
  O     -184.854     -47.111     259.958
  C     -184.052     -49.070     258.785
  O     -184.265     -49.824     259.968
  C     -185.262     -49.023     257.846
  N     -185.468     -50.245     257.067
  C     -185.796     -51.408     257.753
  O     -185.866     -51.495     258.979
  N     -186.020     -52.516     256.976
  C     -185.909     -52.583     255.618
  O     -186.092     -53.613     254.982
  C     -185.531     -51.330     254.948
  C     -185.332     -50.241     255.691
  O     -180.614     -49.343     255.270
  O     -181.136     -47.104     254.189
  H     -183.573     -49.569     260.604
  H     -180.760     -49.575     254.334
  H     -186.273     -53.365     257.458
  H     -185.438     -51.340     253.870
  H     -185.066     -49.302     255.216
  H     -186.167     -48.808     258.426
  H     -183.162     -49.473     258.287
  H     -182.855     -47.342     259.414
  H     -184.716     -46.029     257.796
  H     -183.225     -46.112     255.931
  H     -182.205     -46.069     257.384
  P     -184.469     -45.906     260.951
  C     -184.827     -46.972     263.312
  O     -185.307     -46.118     262.298
  O     -185.230     -44.689     260.231
  O     -183.002     -45.675     261.103
  H     -186.134     -44.919     259.962
  H     -183.749     -46.857     263.455
  H     -185.051     -48.010     263.057
  H     -185.332     -46.722     264.250
  H     -177.831     -46.460     256.437
  H     -178.871     -45.866     255.165
  H     -178.156     -47.455     255.038

 3  4  5  6  7  8  9  10  11  12  13  23  28  29  30  31  32 0
 6-311+G(2d,p)
 ****
 33  34 0
 6-311+G(2d,p)
 ****
 1  2  14  15  16  17  18  19  20  21  22  24  25  26 0
 3-21G
 ****
 27  35  36  37  38  39  40  41  42  43  44  45 0
 3-21G
 ****


