%nproc=1
%NoSave
%Mem=1900MB
#P OB98/GEN NMR

erre ene a

0 1
  C     -116.537     -74.789     -78.471
  O     -116.973     -73.467     -78.211
  P     -117.896     -72.739     -79.297
  C     -120.183     -73.673     -78.487
  O     -119.202     -73.643     -79.513
  C     -120.989     -72.372     -78.482
  O     -121.459     -72.090     -79.835
  C     -122.222     -72.404     -77.567
  O     -122.401     -71.084     -77.035
  C     -123.344     -72.718     -78.539
  O     -124.628     -72.372     -78.043
  C     -122.887     -71.898     -79.751
  N     -123.557     -72.291     -80.988
  C     -124.939     -72.131     -81.046
  O     -125.618     -71.683     -80.124
  N     -125.541     -72.565     -82.196
  C     -124.929     -73.211     -83.231
  O     -125.545     -73.680     -84.181
  C     -123.470     -73.353     -83.115
  C     -122.860     -72.893     -82.019
  O     -117.075     -72.925     -80.659
  O     -118.181     -71.301     -79.009
  H     -125.237     -72.341     -78.803
  H     -116.587     -72.109     -80.877
  H     -126.541     -72.446     -82.260
  H     -122.949     -73.841     -83.928
  H     -121.787     -73.002     -81.899
  H     -123.055     -70.829     -79.569
  H     -123.345     -73.791     -78.760
  H     -122.147     -73.135     -76.755
  H     -120.322     -71.550     -78.192
  H     -119.688     -73.793     -77.522
  H     -120.844     -74.535     -78.636
  P     -123.167     -70.937     -75.630
  C     -121.032     -71.373     -74.187
  O     -122.331     -71.782     -74.559
  O     -124.467     -71.836     -75.903
  O     -123.485     -69.523     -75.264
  H     -124.256     -72.667     -76.359
  H     -120.938     -70.283     -74.182
  H     -120.305     -71.794     -74.885
  H     -120.816     -71.749     -73.183
  H     -115.934     -75.132     -77.657
  H     -115.961     -74.804     -79.373
  H     -117.387     -75.430     -78.580

 3  4  5  6  7  8  9  10  11  12  13  23  28  29  30  31  32 0
 6-311+G(2d,p)
 ****
 33  34 0
 6-311+G(2d,p)
 ****
 1  2  14  15  16  17  18  19  20  21  22  24  25  26 0
 3-21G
 ****
 27  35  36  37  38  39  40  41  42  43  44  45 0
 3-21G
 ****


