%nproc=1
%NoSave
%Mem=1900MB
#P OB98/GEN NMR

erre ene a

0 1
  C      -20.004     -76.874     190.468
  O      -19.399     -78.075     190.914
  H      -21.017     -77.100     190.126
  H      -19.435     -76.454     189.633
  H      -20.058     -76.154     191.288
  P      -17.903     -77.951     191.484
  C      -17.040     -77.585     189.067
  O      -17.135     -77.065     190.386
  C      -15.628     -77.400     188.518
  O      -15.378     -76.011     188.233
  C      -14.521     -77.834     189.471
  O      -14.336     -79.240     189.423
  C      -13.331     -77.087     188.882
  O      -12.829     -77.801     187.737
  C      -13.961     -75.755     188.435
  N      -13.672     -70.651     188.938
  C      -13.656     -71.446     187.849
  N      -13.695     -72.796     187.790
  C      -13.750     -73.325     189.026
  C      -13.774     -72.638     190.231
  C      -13.739     -71.234     190.157
  N      -13.768     -70.424     191.277
  N      -13.829     -73.517     191.295
  C      -13.897     -74.710     190.738
  N      -13.816     -74.650     189.367
  O      -17.250     -79.234     191.872
  O      -18.116     -76.907     192.680
  H      -13.470     -77.684     187.009
  H      -18.759     -76.219     192.423
  H      -13.613     -70.932     186.892
  H      -14.023     -75.642     191.276
  H      -13.546     -75.412     187.477
  H      -12.503     -77.001     189.589
  H      -14.701     -77.471     190.489
  H      -15.565     -77.943     187.566
  H      -17.765     -77.092     188.408
  H      -13.566     -69.446     191.145
  H      -13.691     -70.861     192.183
  H      -17.288     -78.652     189.116
  P      -13.724     -80.028     190.680
  C      -11.405     -79.747     189.603
  O      -12.181     -79.592     190.785
  O      -13.952     -81.501     190.675
  O      -14.387     -79.326     191.956
  H      -14.592     -79.992     192.644
  H      -10.401     -79.427     189.791
  H      -11.827     -79.154     188.819
  H      -11.403     -80.776     189.310

 6  7  8  9  10  11  12  13  14  15  25  28  32  33  34  35 0
 6-311+G(2d,p)
 ****
 36  39  40 0
 6-311+G(2d,p)
 ****
 1  2  3  4  5  16  17  18  19  20  21  22  23  24 0
 3-21G
 ****
 26  27  29  30  31  37  38  41  42  43  44  45  46  47 0
 3-21G
 ****
 48 0
 3-21G
 ****


