%nproc=1
%NoSave
%Mem=1900MB
#P OB98/GEN NMR

erre ene a

0 1
  C      326.441    -716.522    -203.656
  O      326.123    -716.285    -202.297
  H      325.913    -715.788    -204.273
  H      326.124    -717.522    -203.957
  H      327.517    -716.406    -203.819
  P      326.640    -717.315    -201.187
  C      326.896    -715.517    -199.361
  O      326.228    -716.706    -199.762
  C      326.215    -714.882    -198.148
  O      325.000    -714.214    -198.604
  C      325.810    -715.907    -197.067
  O      326.011    -715.299    -195.788
  C      324.335    -716.111    -197.328
  O      323.658    -716.579    -196.178
  C      323.894    -714.736    -197.841
  N      322.672    -714.839    -198.647
  C      321.475    -715.009    -197.945
  O      321.484    -715.059    -196.706
  N      320.319    -715.198    -198.649
  C      320.351    -715.253    -199.951
  N      319.161    -715.468    -200.589
  C      321.599    -715.100    -200.731
  C      322.715    -714.896    -200.019
  O      328.068    -717.740    -201.290
  O      325.650    -718.568    -201.349
  H      322.706    -716.691    -196.384
  H      326.022    -719.210    -201.980
  H      321.570    -715.173    -201.811
  H      323.677    -714.783    -200.514
  H      323.709    -714.058    -197.000
  H      324.209    -716.866    -198.121
  H      326.383    -716.846    -197.130
  H      326.874    -714.114    -197.739
  H      318.343    -715.597    -200.007
  H      326.870    -714.818    -200.205
  H      319.074    -715.582    -201.584
  H      327.947    -715.749    -199.124
  P      327.036    -715.932    -194.726
  C      328.064    -713.638    -194.181
  O      327.442    -714.803    -193.651
  O      328.192    -716.656    -195.338
  O      326.130    -716.942    -193.869
  H      326.684    -717.690    -193.561
  H      328.289    -712.960    -193.384
  H      327.402    -713.165    -194.876
  H      328.969    -713.913    -194.682

 6  7  8  9  10  11  12  13  14  15  16  26  30  31  32  33  35 0
 6-311+G(2d,p)
 ****
 37  38 0
 6-311+G(2d,p)
 ****
 1  2  3  4  5  17  18  19  20  21  22  23  24  25 0
 3-21G
 ****
 27  28  29  34  36  39  40  41  42  43  44  45  46 0
 3-21G
 ****


