%nproc=1
%NoSave
%Mem=1900MB
#P OB98/GEN NMR

erre ene a

0 1
  C     -133.150    -119.350     207.971
  O     -133.084    -120.676     207.473
  P     -134.199    -121.237     206.477
  C     -135.671    -122.281     208.388
  O     -135.562    -121.400     207.286
  C     -137.140    -122.697     208.551
  O     -137.978    -121.527     208.658
  C     -137.623    -123.519     207.358
  O     -137.500    -124.908     207.625
  C     -139.062    -123.059     207.201
  O     -139.915    -123.751     208.131
  C     -138.955    -121.564     207.579
  N     -138.513    -120.609     206.535
  C     -139.191    -119.402     206.378
  O     -140.131    -119.049     207.085
  N     -138.755    -118.610     205.344
  C     -137.711    -118.884     204.511
  O     -137.486    -118.301     203.457
  C     -136.878    -120.031     204.897
  C     -137.325    -120.840     205.858
  O     -133.735    -122.745     206.228
  O     -134.357    -120.482     205.199
  H     -139.548    -123.610     209.023
  H     -133.250    -122.825     205.384
  H     -139.329    -117.800     205.142
  H     -135.961    -120.206     204.349
  H     -136.741    -121.717     206.140
  H     -139.904    -121.189     207.974
  H     -139.445    -123.293     206.208
  H     -137.067    -123.239     206.450
  H     -137.243    -123.275     209.479
  H     -135.312    -121.790     209.300
  H     -135.042    -123.164     208.227
  P     -136.693    -125.842     206.604
  C     -138.578    -126.201     204.910
  O     -137.349    -125.560     205.170
  O     -136.581    -127.275     206.994
  O     -135.255    -125.135     206.528
  H     -134.625    -125.592     207.124
  H     -139.006    -125.795     203.990
  H     -139.284    -126.030     205.734
  H     -138.422    -127.278     204.781
  H     -132.317    -119.170     208.617
  H     -134.060    -119.219     208.518
  H     -133.123    -118.660     207.153

 3  4  5  6  7  8  9  10  11  12  13  23  28  29  30  31  32 0
 6-311+G(2d,p)
 ****
 33  34 0
 6-311+G(2d,p)
 ****
 1  2  14  15  16  17  18  19  20  21  22  24  25  26  27 0
 3-21G
 ****
 35  36  37  38  39  40  41  42  43  44  45 0
 3-21G
 ****


