%nproc=1
%NoSave
%Mem=1900MB
#P OB98/GEN NMR

erre ene a

0 1
  C      -81.969     509.118     -56.194
  O      -81.268     509.261     -57.412
  H      -83.042     509.162     -56.401
  H      -81.712     509.924     -55.503
  H      -81.744     508.149     -55.738
  P      -79.669     509.343     -57.366
  C      -79.642     507.278     -58.920
  O      -79.123     507.885     -57.748
  C      -78.641     506.269     -59.501
  O      -77.509     506.998     -60.057
  C      -78.083     505.282     -58.465
  O      -77.782     504.062     -59.154
  C      -76.810     505.985     -58.038
  O      -75.956     505.121     -57.329
  C      -76.323     506.520     -59.388
  N      -75.314     507.558     -59.248
  C      -74.689     507.976     -60.425
  O      -74.991     507.463     -61.504
  N      -73.718     508.941     -60.349
  C      -73.354     509.399     -59.191
  N      -72.376     510.342     -59.183
  C      -73.950     508.940     -57.917
  C      -74.917     508.031     -58.019
  O      -79.084     509.925     -56.123
  O      -79.290     510.220     -58.653
  H      -76.413     504.742     -56.546
  H      -79.037     511.119     -58.376
  H      -73.598     509.339     -56.978
  H      -75.412     507.631     -57.140
  H      -75.906     505.709     -59.999
  H      -77.038     506.818     -57.364
  H      -78.775     505.089     -57.643
  H      -79.117     505.741     -60.337
  H      -71.989     510.619     -60.079
  H      -79.833     508.075     -59.648
  H      -71.998     510.754     -58.344
  H      -80.586     506.770     -58.699
  P      -78.077     502.615     -58.534
  C      -79.304     501.893     -60.686
  O      -79.351     501.974     -59.264
  O      -78.161     502.599     -57.039
  O      -76.863     501.692     -59.028
  H      -76.690     501.007     -58.359
  H      -80.208     501.449     -61.048
  H      -78.469     501.293     -60.982
  H      -79.200     502.876     -61.096

 6  7  8  9  10  11  12  13  14  15  16  26  30  31  32  33  35 0
 6-311+G(2d,p)
 ****
 37  38 0
 6-311+G(2d,p)
 ****
 1  2  3  4  5  17  18  19  20  21  22  23  24  25 0
 3-21G
 ****
 27  28  29  34  36  39  40  41  42  43  44  45  46 0
 3-21G
 ****


