%nproc=1
%NoSave
%Mem=1900MB
#P OB98/GEN NMR

erre ene a

0 1
  C      645.744    -753.021     980.124
  O      646.196    -752.473     981.350
  H      646.178    -754.011     979.969
  H      644.654    -753.111     980.156
  H      646.021    -752.361     979.296
  P      647.778    -752.294     981.523
  C      647.926    -749.936     980.450
  O      648.269    -751.313     980.354
  C      649.074    -749.068     979.934
  O      649.273    -749.377     978.534
  C      648.845    -747.554     980.067
  O      649.894    -746.963     980.845
  C      648.947    -747.027     978.642
  O      649.649    -745.792     978.546
  C      649.672    -748.146     977.904
  N      650.579    -745.887     973.429
  C      651.305    -745.939     974.559
  N      651.062    -746.644     975.682
  C      649.939    -747.375     975.545
  C      649.102    -747.445     974.442
  C      649.450    -746.633     973.351
  N      648.678    -746.539     972.212
  N      648.038    -748.296     974.691
  C      648.202    -748.699     975.926
  N      649.331    -748.158     976.494
  O      648.364    -753.720     981.090
  O      648.224    -751.910     982.895
  H      649.189    -745.164     979.136
  H      649.010    -754.029     981.753
  H      652.208    -745.334     974.575
  H      647.529    -749.344     976.476
  H      650.765    -748.056     977.993
  H      647.933    -746.895     978.244
  H      647.870    -747.312     980.511
  H      649.990    -749.364     980.464
  H      647.741    -749.683     981.503
  H      648.938    -745.845     971.526
  H      647.781    -747.000     972.192
  H      647.009    -749.751     979.882
  P      649.443    -746.104     982.126
  C      650.451    -747.816     983.805
  O      649.293    -747.119     983.361
  O      647.924    -745.717     981.783
  O      650.282    -744.896     982.372
  H      647.681    -744.888     982.233
  H      650.193    -748.449     984.628
  H      651.194    -747.112     984.116
  H      650.838    -748.412     983.005

 6  7  8  9  10  11  12  13  14  15  25  28  32  33  34  35 0
 6-311+G(2d,p)
 ****
 36  39  40 0
 6-311+G(2d,p)
 ****
 1  2  3  4  5  16  17  18  19  20  21  22  23  24 0
 3-21G
 ****
 26  27  29  30  31  37  38  41  42  43  44  45  46  47  48 0
 3-21G
 ****


