%nproc=1
%NoSave
%Mem=1900MB
#P OB98/GEN NMR

erre ene a

0 1
  C      -55.999     160.151     -57.693
  O      -57.342     160.558     -57.851
  H      -55.353     160.880     -58.189
  H      -55.837     159.173     -58.151
  H      -55.733     160.115     -56.632
  P      -58.503     159.620     -57.270
  C      -59.404     161.710     -56.051
  O      -59.720     160.587     -56.868
  C      -60.445     162.817     -56.251
  O      -60.299     163.321     -57.601
  C      -61.884     162.309     -56.079
  O      -62.641     163.077     -55.147
  C      -62.399     162.227     -57.510
  O      -63.800     162.350     -57.641
  C      -61.593     163.313     -58.232
  N      -61.463     163.097     -59.671
  C      -62.390     163.728     -60.496
  O      -63.292     164.469     -60.112
  N      -62.247     163.485     -61.838
  C      -61.302     162.693     -62.416
  O      -61.220     162.519     -63.627
  C      -60.367     162.037     -61.492
  C      -60.489     162.264     -60.181
  O      -58.089     158.663     -56.205
  O      -59.066     158.855     -58.560
  H      -64.051     163.243     -57.326
  H      -58.716     157.945     -58.578
  H      -62.906     163.946     -62.446
  H      -59.609     161.392     -61.915
  H      -59.813     161.797     -59.470
  H      -62.049     164.292     -58.083
  H      -62.124     161.247     -57.919
  H      -61.893     161.304     -55.642
  H      -60.221     163.641     -55.563
  H      -58.410     162.066     -56.339
  H      -59.383     161.405     -54.999
  P      -62.957     162.632     -53.648
  C      -63.047     165.175     -53.017
  O      -63.609     163.878     -52.884
  O      -61.860     161.907     -52.945
  O      -64.190     161.605     -53.819
  H      -64.096     160.937     -53.108
  H      -63.616     165.871     -52.437
  H      -63.066     165.468     -54.046
  H      -62.035     165.163     -52.668

 6  7  8  9  10  11  12  13  14  15  16  26  31  32  33  34  35 0
 6-311+G(2d,p)
 ****
 36  37 0
 6-311+G(2d,p)
 ****
 1  2  3  4  5  17  18  19  20  21  22  23  24  25 0
 3-21G
 ****
 27  28  29  30  38  39  40  41  42  43  44  45 0
 3-21G
 ****


