%nproc=1
%NoSave
%Mem=1900MB
#P OB98/GEN NMR

erre ene a

0 1
  C      -21.622      50.854     -24.103
  O      -22.986      50.835     -24.487
  P      -23.320      50.597     -26.040
  C      -22.904      48.578     -27.620
  O      -22.434      49.350     -26.524
  C      -21.741      48.108     -28.494
  O      -21.121      49.268     -29.116
  C      -20.639      47.350     -27.736
  O      -20.133      46.353     -28.631
  C      -19.612      48.442     -27.494
  O      -18.325      47.959     -27.153
  C      -19.709      49.205     -28.811
  N      -15.621      52.071     -29.906
  C      -15.913      50.779     -30.175
  N      -17.027      50.086     -29.859
  C      -17.901      50.868     -29.204
  C      -17.737      52.194     -28.842
  C      -16.531      52.804     -29.223
  N      -16.233      54.122     -28.940
  N      -18.838      52.656     -28.154
  C      -19.655      51.625     -28.097
  N      -19.141      50.530     -28.736
  O      -22.618      51.843     -26.754
  O      -24.778      50.510     -26.366
  H      -17.877      47.614     -27.950
  H      -23.164      52.181     -27.490
  H      -15.149      50.227     -30.716
  H      -20.615      51.615     -27.601
  H      -19.213      48.672     -29.632
  H      -19.950      49.069     -26.659
  H      -20.996      46.864     -26.824
  H      -22.144      47.483     -29.300
  H      -23.569      49.191     -28.236
  H      -15.273      54.403     -29.076
  H      -16.819      54.590     -28.260
  H      -23.483      47.728     -27.244
  P      -19.394      45.067     -28.021
  C      -19.986      43.431     -26.131
  O      -20.317      44.644     -26.777
  O      -18.151      45.753     -27.281
  O      -19.028      44.002     -28.996
  H      -18.436      46.484     -26.704
  H      -20.626      43.317     -25.252
  H      -18.941      43.444     -25.809
  H      -20.161      42.589     -26.806
  H      -21.551      51.020     -23.048
  H      -21.116      51.640     -24.623
  H      -21.170      49.916     -24.347

 3  4  5  6  7  8  9  10  11  12  22  25  29  30  31  32 0
 6-311+G(2d,p)
 ****
 33  36  37 0
 6-311+G(2d,p)
 ****
 1  2  13  14  15  16  17  18  19  20  21  23  24  26 0
 3-21G
 ****
 27  28  34  35  38  39  40  41  42  43  44  45  46  47  48 0
 3-21G
 ****


