%nproc=1
%NoSave
%Mem=1900MB
#P OB98/GEN NMR

erre ene a

0 1
  C      442.182    -679.342      22.164
  O      442.940    -679.848      21.078
  H      441.735    -680.184      22.693
  H      441.387    -678.694      21.801
  H      442.825    -678.786      22.855
  P      443.784    -678.781      20.223
  C      445.840    -680.378      20.197
  O      445.336    -679.096      20.521
  C      447.365    -680.318      20.057
  O      447.692    -679.324      19.046
  C      448.072    -679.913      21.356
  O      449.291    -680.626      21.463
  C      448.357    -678.428      21.151
  O      449.424    -677.937      21.944
  C      448.638    -678.393      19.645
  N      448.458    -677.051      19.085
  C      449.608    -676.350      18.728
  O      450.748    -676.809      18.790
  N      449.417    -675.070      18.289
  C      448.215    -674.427      18.184
  O      448.100    -673.280      17.792
  C      447.033    -675.220      18.566
  C      447.212    -676.469      19.001
  O      443.526    -677.404      20.995
  O      443.428    -678.694      18.775
  H      442.756    -676.949      20.644
  H      449.281    -678.261      22.864
  H      450.236    -674.553      18.023
  H      446.067    -674.734      18.523
  H      446.365    -677.076      19.318
  H      449.638    -678.760      19.434
  H      447.468    -677.836      21.396
  H      447.465    -680.084      22.249
  H      447.720    -681.276      19.692
  H      445.393    -680.709      19.245
  H      445.560    -681.086      20.987
  P      449.309    -681.988      22.333
  C      448.424    -683.272      20.232
  O      448.253    -682.964      21.611
  O      448.541    -681.492      23.644
  O      450.674    -682.537      22.537
  H      447.822    -680.857      23.477
  H      447.641    -683.928      19.913
  H      449.371    -683.750      20.088
  H      448.389    -682.370      19.658

 6  7  8  9  10  11  12  13  14  15  16  27  31  32  33  34  35 0
 6-311+G(2d,p)
 ****
 36  37 0
 6-311+G(2d,p)
 ****
 1  2  3  4  5  17  18  19  20  21  22  23  24  25 0
 3-21G
 ****
 26  28  29  30  38  39  40  41  42  43  44  45 0
 3-21G
 ****


