%nproc=1
%NoSave
%Mem=1900MB
#P OB98/GEN NMR

erre ene a

0 1
  C     -147.291     -10.059     167.129
  O     -148.328      -9.917     168.080
  H     -146.900      -9.067     166.887
  H     -147.670     -10.518     166.212
  H     -146.477     -10.665     167.537
  P     -149.069     -11.240     168.595
  C     -151.222      -9.910     169.103
  O     -150.194     -10.742     169.623
  C     -152.483     -10.049     169.948
  O     -153.115     -11.321     169.706
  C     -152.232      -9.967     171.453
  O     -152.114      -8.615     171.863
  C     -153.488     -10.646     171.977
  O     -154.601      -9.736     171.897
  C     -153.663     -11.793     170.967
  N     -154.113     -16.243     173.351
  C     -155.011     -15.199     173.244
  N     -156.180     -15.348     173.904
  N     -154.776     -14.103     172.570
  C     -153.540     -14.068     172.023
  C     -152.558     -15.031     172.074
  C     -152.850     -16.262     172.775
  O     -152.089     -17.219     172.879
  N     -151.410     -14.610     171.454
  C     -151.710     -13.410     170.997
  N     -152.988     -13.029     171.329
  O     -148.189     -12.324     169.142
  O     -149.914     -11.731     167.331
  H     -154.328      -8.920     172.354
  H     -149.412     -12.374     166.798
  H     -154.345     -17.054     173.901
  H     -151.044     -12.781     170.420
  H     -154.717     -12.039     170.796
  H     -153.401     -10.963     173.016
  H     -156.290     -16.022     174.652
  H     -151.365     -10.564     171.753
  H     -156.830     -14.574     173.881
  H     -153.190      -9.273     169.627
  H     -151.414     -10.229     168.073
  H     -150.899      -8.865     169.093
  P     -150.779      -8.080     172.577
  C     -151.877      -6.196     173.963
  O     -151.052      -6.525     172.854
  O     -149.516      -8.369     171.839
  O     -150.828      -8.707     174.043
  H     -150.412      -9.602     174.105
  H     -151.975      -5.133     174.031
  H     -151.433      -6.572     174.861
  H     -152.844      -6.636     173.831

 6  7  8  9  10  11  12  13  14  15  26  29  33  34 0
 6-311+G(2d,p)
 ****
 36  38  39  40  41 0
 6-311+G(2d,p)
 ****
 1  2  3  4  5  16  17  18  19  20  21  22  23  24  25 0
 3-21G
 ****
 27  28  30  31  32  35  37  42  43  44  45  46  47 0
 3-21G
 ****
 48  49 0
 3-21G
 ****


