%nproc=1
%NoSave
%Mem=1900MB
#P OB98/GEN NMR

erre ene a

0 1
  C       -1.827      48.638    -285.596
  O       -2.644      47.699    -284.916
  P       -2.235      46.145    -284.842
  C       -1.667      44.447    -286.705
  O       -2.416      45.598    -286.337
  C       -1.603      44.331    -288.228
  O       -0.796      45.405    -288.759
  C       -0.972      43.046    -288.738
  O       -1.879      41.956    -288.628
  C       -0.600      43.451    -290.159
  O       -1.755      43.391    -291.016
  C       -0.164      44.915    -289.968
  N        1.287      45.075    -289.909
  C        1.975      44.963    -291.123
  O        1.379      44.756    -292.175
  N        3.340      45.135    -291.117
  C        3.962      45.365    -290.000
  N        5.308      45.586    -290.068
  C        3.283      45.433    -288.695
  C        1.954      45.288    -288.722
  O       -2.953      45.360    -283.802
  O       -0.650      46.154    -284.662
  H       -1.491      43.777    -291.874
  H       -0.355      46.198    -283.718
  H        3.847      45.618    -287.791
  H        1.377      45.346    -287.810
  H       -0.556      45.536    -290.784
  H        0.177      42.818    -290.606
  H       -0.059      42.810    -288.168
  H       -2.622      44.444    -288.623
  H        5.700      45.706    -290.996
  H       -2.164      43.561    -286.301
  H        5.804      46.052    -289.317
  H       -0.663      44.516    -286.275
  P       -1.283      40.477    -288.804
  C        0.701      39.726    -290.304
  O       -0.484      40.490    -290.204
  O       -2.582      39.587    -289.093
  O       -0.503      39.984    -287.630
  H       -2.850      39.109    -288.282
  H        0.979      39.643    -291.356
  H        0.547      38.716    -289.903
  H        1.512      40.217    -289.761
  H       -2.270      49.610    -285.530
  H       -1.738      48.355    -286.624
  H       -0.856      48.658    -285.146

 3  4  5  6  7  8  9  10  11  12  13  23  27  28  29  30  32 0
 6-311+G(2d,p)
 ****
 34  35 0
 6-311+G(2d,p)
 ****
 1  2  14  15  16  17  18  19  20  21  22  24  25  26 0
 3-21G
 ****
 31  33  36  37  38  39  40  41  42  43  44  45  46 0
 3-21G
 ****


