%nproc=1
%NoSave
%Mem=1900MB
#P OB98/GEN NMR

erre ene a

0 1
  C      -94.245    -151.548     -25.330
  O      -95.317    -150.654     -25.097
  H      -94.651    -152.549     -25.498
  H      -93.589    -151.575     -24.456
  H      -93.677    -151.243     -26.213
  P      -94.950    -149.096     -25.059
  C      -94.380    -149.198     -27.617
  O      -93.983    -148.803     -26.311
  C      -94.224    -148.032     -28.588
  O      -94.377    -148.475     -29.951
  C      -95.282    -146.951     -28.441
  O      -95.104    -146.170     -27.280
  C      -95.073    -146.174     -29.733
  O      -94.019    -145.211     -29.608
  C      -94.678    -147.292     -30.729
  N      -95.717    -147.527     -31.714
  C      -95.483    -146.967     -32.977
  O      -94.442    -146.345     -33.193
  N      -96.447    -147.096     -33.941
  C      -97.559    -147.703     -33.664
  N      -98.488    -147.768     -34.656
  C      -97.846    -148.306     -32.347
  C      -96.891    -148.181     -31.425
  O      -93.961    -149.005     -23.806
  O      -96.122    -148.178     -24.981
  H      -94.320    -144.559     -28.943
  H      -93.254    -149.671     -23.815
  H      -98.783    -148.813     -32.170
  H      -97.018    -148.593     -30.431
  H      -93.756    -147.024     -31.260
  H      -95.972    -145.625     -30.023
  H      -96.284    -147.397     -28.470
  H      -93.213    -147.620     -28.466
  H      -98.272    -147.294     -35.525
  H      -95.416    -149.553     -27.613
  H      -99.415    -148.144     -34.532
  H      -93.744    -150.036     -27.920
  P      -95.932    -144.820     -27.050
  C      -97.697    -146.070     -25.650
  O      -97.459    -145.252     -26.791
  O      -95.761    -143.777     -28.102
  O      -95.467    -144.354     -25.590
  H      -95.649    -144.993     -24.879
  H      -98.742    -146.291     -25.582
  H      -97.384    -145.552     -24.768
  H      -97.145    -146.982     -25.743

 6  7  8  9  10  11  12  13  14  15  16  26  30  31  32  33  35 0
 6-311+G(2d,p)
 ****
 37  38 0
 6-311+G(2d,p)
 ****
 1  2  3  4  5  17  18  19  20  21  22  23  24  25 0
 3-21G
 ****
 27  28  29  34  36  39  40  41  42  43  44  45  46 0
 3-21G
 ****


