%nproc=1
%NoSave
%Mem=1900MB
#P OB98/GEN NMR

erre ene a

0 1
  C     -236.930      70.373      -3.546
  O     -236.695      70.703      -2.192
  H     -238.007      70.383      -3.729
  H     -236.545      69.372      -3.762
  H     -236.452      71.105      -4.202
  P     -235.164      70.681      -1.710
  C     -233.486      68.820      -1.047
  O     -234.732      69.136      -1.651
  C     -232.990      67.459      -1.527
  O     -233.870      66.406      -1.077
  C     -232.885      67.327      -3.043
  O     -231.662      67.864      -3.515
  C     -232.971      65.817      -3.214
  O     -231.698      65.192      -2.942
  C     -234.005      65.431      -2.147
  N     -237.622      62.475      -4.062
  C     -236.301      62.196      -3.777
  N     -235.868      60.950      -4.071
  N     -235.470      63.061      -3.261
  C     -236.021      64.283      -3.073
  C     -237.314      64.686      -3.317
  C     -238.237      63.701      -3.838
  O     -239.439      63.863      -4.034
  N     -237.497      66.003      -2.978
  C     -236.309      66.401      -2.563
  N     -235.380      65.395      -2.607
  O     -235.253      71.097      -0.165
  O     -234.244      71.584      -2.458
  H     -231.758      64.243      -3.148
  H     -234.488      71.663       0.051
  H     -238.224      61.761      -4.430
  H     -236.076      67.398      -2.214
  H     -233.796      64.446      -1.713
  H     -233.235      65.543      -4.236
  H     -236.359      60.352      -4.721
  H     -233.743      67.797      -3.539
  H     -234.882      60.770      -3.930
  H     -232.014      67.282      -1.058
  H     -233.617      68.797       0.040
  H     -232.755      69.592      -1.303
  P     -231.244      67.572      -5.034
  C     -229.500      66.094      -6.266
  O     -230.076      66.470      -5.023
  O     -230.488      68.917      -5.461
  O     -232.385      67.288      -5.951
  H     -231.059      69.447      -6.047
  H     -228.742      65.357      -6.100
  H     -229.066      66.954      -6.732
  H     -230.258      65.688      -6.902

 6  7  8  9  10  11  12  13  14  15  26  29  33  34 0
 6-311+G(2d,p)
 ****
 36  38  39  40  41 0
 6-311+G(2d,p)
 ****
 1  2  3  4  5  16  17  18  19  20  21  22  23  24  25 0
 3-21G
 ****
 27  28  30  31  32  35  37  42  43  44  45  46  47 0
 3-21G
 ****
 48  49 0
 3-21G
 ****


