%nproc=1
%NoSave
%Mem=1900MB
#P OB98/GEN NMR

erre ene a

0 1
  C     -388.777    -147.187     152.550
  O     -390.090    -146.750     152.831
  P     -390.928    -147.368     154.048
  C     -389.957    -145.493     155.526
  O     -390.202    -146.891     155.399
  C     -390.325    -145.012     156.933
  O     -389.934    -143.610     157.067
  C     -391.837    -145.112     157.222
  O     -392.165    -145.814     158.423
  C     -392.283    -143.658     157.172
  O     -393.502    -143.410     157.848
  C     -391.041    -142.933     157.697
  N     -391.058    -141.504     157.400
  C     -390.628    -140.642     158.407
  O     -390.226    -141.006     159.507
  N     -390.726    -139.307     158.132
  C     -391.306    -138.752     157.029
  O     -391.447    -137.547     156.896
  C     -391.778    -139.713     156.018
  C     -391.618    -141.022     156.231
  O     -391.179    -148.835     153.972
  O     -392.261    -146.478     154.056
  H     -393.667    -142.447     157.818
  H     -392.114    -145.525     154.188
  H     -390.418    -138.668     158.853
  H     -392.252    -139.306     155.138
  H     -391.959    -141.752     155.507
  H     -390.927    -143.059     158.774
  H     -392.443    -143.397     156.118
  H     -392.352    -145.676     156.436
  H     -389.748    -145.603     157.650
  H     -390.568    -144.961     154.793
  H     -388.906    -145.279     155.296
  P     -393.447    -146.751     158.619
  C     -392.339    -148.998     157.916
  O     -393.304    -148.005     157.631
  O     -394.763    -146.050     158.561
  O     -393.217    -147.399     160.065
  H     -394.079    -147.599     160.474
  H     -392.020    -149.454     156.975
  H     -392.789    -149.767     158.545
  H     -391.460    -148.577     158.418
  H     -388.397    -146.653     151.704
  H     -388.788    -148.235     152.334
  H     -388.151    -147.004     153.398

 3  4  5  6  7  8  9  10  11  12  13  23  28  29  30  31  32 0
 6-311+G(2d,p)
 ****
 33  34 0
 6-311+G(2d,p)
 ****
 1  2  14  15  16  17  18  19  20  21  22  24  25  26  27 0
 3-21G
 ****
 35  36  37  38  39  40  41  42  43  44  45 0
 3-21G
 ****


