%nproc=1
%NoSave
%Mem=1900MB
#P OB98/GEN NMR

erre ene a

0 1
  C      -45.026      37.312     147.793
  O      -44.470      38.573     147.422
  P      -44.224      38.881     145.868
  C      -41.664      39.102     145.702
  O      -42.909      39.790     145.739
  C      -40.504      40.088     145.553
  O      -40.240      40.790     146.783
  C      -39.192      39.419     145.181
  O      -39.191      39.025     143.820
  C      -38.190      40.504     145.543
  O      -38.082      41.478     144.492
  C      -38.839      41.142     146.791
  N      -38.197      40.751     148.036
  C      -36.971      41.365     148.314
  O      -36.475      42.153     147.509
  N      -36.332      41.055     149.489
  C      -36.868      40.205     150.309
  N      -36.193      39.939     151.459
  C      -38.152      39.528     150.048
  C      -38.753      39.839     148.901
  O      -45.414      39.370     145.110
  O      -43.722      37.465     145.302
  H      -37.924      40.972     143.671
  H      -43.991      37.387     144.366
  H      -38.560      38.831     150.766
  H      -39.699      39.385     148.629
  H      -38.797      42.237     146.722
  H      -37.188      40.095     145.707
  H      -39.030      38.541     145.819
  H      -40.778      40.823     144.784
  H      -35.309      40.408     151.609
  H      -41.662      38.396     144.868
  H      -36.551      39.331     152.182
  H      -41.561      38.508     146.617
  P      -38.881      37.488     143.490
  C      -36.635      37.479     142.197
  O      -38.046      37.438     142.125
  O      -40.316      36.914     143.066
  O      -38.303      36.707     144.626
  H      -40.394      35.986     143.349
  H      -36.227      37.125     141.246
  H      -36.257      36.841     143.000
  H      -36.304      38.508     142.360
  H      -45.126      37.265     148.857
  H      -44.381      36.526     147.460
  H      -45.989      37.199     147.339

 3  4  5  6  7  8  9  10  11  12  13  23  27  28  29  30  32 0
 6-311+G(2d,p)
 ****
 34  35 0
 6-311+G(2d,p)
 ****
 1  2  14  15  16  17  18  19  20  21  22  24  25  26 0
 3-21G
 ****
 31  33  36  37  38  39  40  41  42  43  44  45  46 0
 3-21G
 ****


