%nproc=1
%NoSave
%Mem=1900MB
#P OB98/GEN NMR

erre ene a

0 1
  C     -938.921    -278.449    -197.501
  O     -938.259    -277.737    -198.529
  P     -939.005    -277.601    -199.937
  C     -937.864    -275.327    -200.554
  O     -938.070    -276.698    -200.885
  C     -936.649    -274.787    -201.314
  O     -935.432    -275.286    -200.715
  C     -936.601    -275.218    -202.765
  O     -937.480    -274.433    -203.571
  C     -935.126    -275.004    -203.109
  O     -934.870    -273.640    -203.439
  C     -934.440    -275.392    -201.771
  N     -933.825    -276.709    -201.814
  C     -932.604    -276.836    -201.167
  O     -932.049    -275.888    -200.599
  N     -932.021    -278.076    -201.213
  C     -932.500    -279.168    -201.892
  O     -931.905    -280.239    -201.952
  C     -933.787    -278.965    -202.597
  C     -934.376    -277.764    -202.530
  O     -940.252    -276.652    -199.632
  O     -939.422    -278.896    -200.548
  H     -935.456    -273.421    -204.199
  H     -941.014    -276.930    -200.172
  H     -931.146    -278.194    -200.729
  H     -934.199    -279.798    -203.132
  H     -935.307    -277.586    -203.045
  H     -933.666    -274.647    -201.532
  H     -934.804    -275.611    -203.960
  H     -936.841    -276.282    -202.859
  H     -936.653    -273.692    -201.231
  H     -937.699    -275.237    -199.472
  H     -938.768    -274.761    -200.810
  P     -938.364    -275.223    -204.663
  C     -940.054    -273.227    -204.469
  O     -939.310    -274.107    -205.302
  O     -939.310    -276.084    -203.704
  O     -937.537    -276.038    -205.613
  H     -939.517    -275.629    -202.865
  H     -939.471    -272.974    -203.563
  H     -940.988    -273.700    -204.174
  H     -940.265    -272.319    -205.019
  H     -938.309    -278.459    -196.623
  H     -939.101    -279.454    -197.822
  H     -939.853    -277.972    -197.280

 3  4  5  6  7  8  9  10  11  12  13  23  28  29  30  31  32 0
 6-311+G(2d,p)
 ****
 33  34 0
 6-311+G(2d,p)
 ****
 1  2  14  15  16  17  18  19  20  21  22  24  25  26 0
 3-21G
 ****
 27  35  36  37  38  39  40  41  42  43  44  45 0
 3-21G
 ****


