%nproc=1
%NoSave
%Mem=1900MB
#P OB98/GEN NMR

erre ene a

0 1
  C     -375.464     -66.742    -123.114
  O     -376.286     -66.689    -121.964
  H     -374.822     -65.856    -123.124
  H     -376.071     -66.743    -124.023
  H     -374.829     -67.632    -123.087
  P     -377.380     -67.840    -121.758
  C     -375.619     -69.517    -120.874
  O     -376.597     -69.234    -121.869
  C     -375.604     -71.008    -120.545
  O     -374.592     -71.295    -119.559
  C     -376.913     -71.531    -119.962
  O     -377.891     -71.663    -120.972
  C     -376.437     -72.833    -119.337
  O     -376.277     -73.854    -120.333
  C     -375.062     -72.409    -118.765
  N     -375.105     -72.056    -117.348
  C     -374.576     -73.001    -116.461
  O     -374.124     -74.065    -116.887
  N     -374.594     -72.719    -115.117
  C     -375.053     -71.584    -114.699
  N     -375.037     -71.364    -113.356
  C     -375.586     -70.546    -115.602
  C     -375.593     -70.849    -116.899
  O     -378.606     -67.749    -122.614
  O     -377.741     -67.752    -120.200
  H     -377.162     -74.245    -120.468
  H     -378.524     -67.187    -120.061
  H     -375.948     -69.607    -115.209
  H     -375.968     -70.141    -117.632
  H     -374.330     -73.217    -118.892
  H     -377.137     -73.218    -118.596
  H     -377.260     -70.872    -119.160
  H     -375.335     -71.553    -121.459
  H     -374.642     -72.099    -112.777
  H     -375.890     -68.939    -119.984
  H     -375.215     -70.467    -112.935
  H     -374.626     -69.195    -121.206
  P     -379.350     -72.249    -120.657
  C     -380.342     -69.908    -121.030
  O     -380.217     -71.004    -120.135
  O     -379.373     -73.448    -119.769
  O     -379.970     -72.519    -122.107
  H     -379.592     -73.347    -122.495
  H     -380.937     -69.143    -120.576
  H     -380.812     -70.237    -121.933
  H     -379.371     -69.518    -121.254

 6  7  8  9  10  11  12  13  14  15  16  26  30  31  32  33  35 0
 6-311+G(2d,p)
 ****
 37  38 0
 6-311+G(2d,p)
 ****
 1  2  3  4  5  17  18  19  20  21  22  23  24  25 0
 3-21G
 ****
 27  28  29  34  36  39  40  41  42  43  44  45  46 0
 3-21G
 ****


