%nproc=1
%NoSave
%Mem=1900MB
#P OB98/GEN NMR

erre ene a

0 1
  C      335.762    -223.957     349.972
  O      335.635    -223.913     348.565
  H      335.969    -222.956     350.363
  H      334.822    -224.314     350.399
  H      336.564    -224.642     350.258
  P      336.903    -223.373     347.742
  C      335.890    -221.591     346.151
  O      336.363    -222.925     346.293
  C      334.893    -221.512     344.996
  O      335.387    -222.339     343.909
  C      333.469    -221.981     345.346
  O      332.530    -220.934     345.090
  C      333.198    -223.119     344.370
  O      331.867    -223.104     343.848
  C      334.233    -222.900     343.273
  N      332.616    -226.307     339.841
  C      332.300    -225.006     340.030
  N      332.841    -224.124     340.891
  C      333.833    -224.702     341.597
  C      334.285    -226.005     341.499
  C      333.615    -226.837     340.584
  N      333.899    -228.175     340.436
  N      335.317    -226.237     342.394
  C      335.454    -225.096     343.045
  N      334.565    -224.149     342.613
  O      337.735    -224.707     347.434
  O      337.731    -222.354     348.449
  H      331.815    -223.828     343.196
  H      338.674    -224.562     347.654
  H      331.492    -224.623     339.405
  H      336.141    -224.919     343.867
  H      333.883    -222.190     342.509
  H      333.356    -224.074     344.886
  H      333.380    -222.322     346.379
  H      334.873    -220.478     344.627
  H      336.734    -220.926     345.938
  H      333.298    -228.720     339.844
  H      334.570    -228.598     341.063
  H      335.425    -221.274     347.090
  P      331.206    -220.917     346.008
  C      329.148    -220.381     344.505
  O      330.176    -219.876     345.350
  O      331.702    -220.158     347.332
  O      330.660    -222.273     346.311
  H      331.165    -220.441     348.097
  H      328.549    -219.569     344.148
  H      328.534    -221.061     345.058
  H      329.588    -220.892     343.674

 6  7  8  9  10  11  12  13  14  15  25  28  32  33  34  35 0
 6-311+G(2d,p)
 ****
 36  39  40 0
 6-311+G(2d,p)
 ****
 1  2  3  4  5  16  17  18  19  20  21  22  23  24 0
 3-21G
 ****
 26  27  29  30  31  37  38  41  42  43  44  45  46  47  48 0
 3-21G
 ****


