%nproc=1
%NoSave
%Mem=1900MB
#P OB98/GEN NMR

erre ene a

0 1
  C      132.826      72.358       5.448
  O      132.523      72.679       6.800
  P      133.740      73.004       7.793
  C      133.353      75.537       7.400
  O      134.284      74.465       7.404
  C      133.914      76.757       8.131
  O      133.014      77.881       7.934
  C      134.083      76.572       9.642
  O      135.224      77.341      10.040
  C      132.829      77.212      10.209
  O      132.982      77.579      11.576
  C      132.661      78.381       9.241
  N      129.393      81.630      11.455
  C      130.700      81.376      11.683
  N      131.502      80.496      11.050
  C      130.826      79.838      10.093
  C      129.486      79.966       9.772
  C      128.751      80.918      10.499
  N      127.424      81.187      10.263
  N      129.148      79.100       8.752
  C      130.263      78.461       8.464
  N      131.307      78.891       9.232
  O      134.891      72.024       7.268
  O      133.457      72.785       9.238
  H      133.600      78.334      11.623
  H      135.063      71.328       7.932
  H      131.163      81.961      12.472
  H      130.363      77.687       7.718
  H      133.335      79.214       9.478
  H      131.991      76.511      10.137
  H      134.201      75.529       9.954
  H      134.871      77.027       7.668
  H      132.442      75.213       7.910
  H      127.006      81.975      10.729
  H      126.989      80.801       9.432
  H      133.100      75.798       6.368
  P      136.035      76.828      11.323
  C      137.283      75.212       9.724
  O      136.609      75.380      10.956
  O      134.883      76.522      12.391
  O      137.029      77.811      11.850
  H      135.230      76.627      13.296
  H      138.070      74.464       9.851
  H      137.735      76.145       9.375
  H      136.573      74.857       8.972
  H      131.918      72.168       4.915
  H      133.446      71.487       5.419
  H      133.341      73.178       4.994

 3  4  5  6  7  8  9  10  11  12  22  25  29  30  31  32 0
 6-311+G(2d,p)
 ****
 33  36  37 0
 6-311+G(2d,p)
 ****
 1  2  13  14  15  16  17  18  19  20  21  23  24  26 0
 3-21G
 ****
 27  28  34  35  38  39  40  41  42  43  44  45  46  47  48 0
 3-21G
 ****


