%nproc=1
%NoSave
%Mem=1900MB
#P OB98/GEN NMR

erre ene a

0 1
  C      -21.402     296.760     240.858
  O      -22.207     296.326     241.943
  P      -23.135     295.034     241.734
  C      -25.297     296.355     242.321
  O      -24.465     295.249     242.613
  C      -26.555     296.327     243.197
  O      -27.303     295.102     242.938
  C      -26.261     296.371     244.707
  O      -27.326     297.098     245.336
  C      -26.349     294.909     245.097
  O      -26.545     294.710     246.487
  C      -27.515     294.455     244.206
  N      -27.592     293.001     244.071
  C      -28.231     292.298     245.085
  O      -28.726     292.828     246.081
  N      -28.237     290.935     244.951
  C      -27.605     290.219     243.982
  O      -27.544     288.992     243.984
  C      -26.942     291.012     242.928
  C      -26.969     292.343     243.023
  O      -22.344     293.886     242.516
  O      -23.386     294.670     240.308
  H      -26.595     293.753     246.641
  H      -21.838     293.327     241.892
  H      -28.703     290.401     245.676
  H      -26.448     290.477     242.132
  H      -26.474     292.955     242.278
  H      -28.461     294.840     244.609
  H      -25.412     294.401     244.821
  H      -25.295     296.822     244.953
  H      -27.201     297.171     242.915
  H      -25.598     296.312     241.273
  H      -24.742     297.291     242.472
  P      -26.997     298.558     245.926
  C      -28.202     298.220     248.229
  O      -28.150     298.892     246.989
  O      -27.355     299.475     244.663
  O      -25.587     298.714     246.403
  H      -28.182     299.207     244.221
  H      -27.194     297.992     248.600
  H      -28.765     297.294     248.112
  H      -28.705     298.854     248.956
  H      -20.845     297.626     241.151
  H      -22.028     297.003     240.025
  H      -20.726     295.978     240.580

 3  4  5  6  7  8  9  10  11  12  13  23  28  29  30  31  32 0
 6-311+G(2d,p)
 ****
 33  34 0
 6-311+G(2d,p)
 ****
 1  2  14  15  16  17  18  19  20  21  22  24  25  26 0
 3-21G
 ****
 27  35  36  37  38  39  40  41  42  43  44  45 0
 3-21G
 ****


