%nproc=1
%NoSave
%Mem=1900MB
#P OB98/GEN NMR

erre ene a

0 1
  C      148.503     -81.208      -0.660
  O      148.752     -79.818      -0.573
  H      149.391     -81.696      -1.071
  H      147.657     -81.407      -1.323
  H      148.304     -81.622       0.332
  P      147.570     -78.862      -0.072
  C      147.654     -77.785      -2.422
  O      147.606     -77.568      -1.016
  C      148.952     -77.230      -3.006
  O      149.056     -77.568      -4.404
  C      149.068     -75.712      -2.937
  O      149.366     -75.295      -1.620
  C      150.161     -75.469      -3.964
  O      151.456     -75.762      -3.417
  C      149.784     -76.500      -5.056
  N      149.000     -75.931      -6.148
  C      149.731     -75.401      -7.218
  O      150.961     -75.417      -7.198
  N      149.042     -74.851      -8.271
  C      147.747     -74.868      -8.280
  N      147.126     -74.311      -9.354
  C      146.940     -75.447      -7.189
  C      147.624     -75.945      -6.161
  O      147.542     -78.556       1.394
  O      146.238     -79.616      -0.542
  H      151.390     -76.656      -3.027
  H      145.890     -80.175       0.177
  H      145.861     -75.449      -7.242
  H      147.107     -76.391      -5.317
  H      150.688     -76.950      -5.486
  H      150.185     -74.434      -4.307
  H      148.145     -75.244      -3.298
  H      149.789     -77.713      -2.487
  H      147.722     -73.944     -10.089
  H      146.793     -77.266      -2.858
  H      146.139     -74.413      -9.544
  H      147.564     -78.853      -2.652
  P      148.419     -74.272      -0.828
  C      149.022     -72.059      -1.989
  O      149.194     -72.866      -0.835
  O      147.968     -74.735       0.516
  O      147.216     -74.007      -1.848
  H      146.587     -74.772      -1.847
  H      149.582     -71.154      -1.878
  H      147.985     -71.824      -2.108
  H      149.369     -72.590      -2.851

 6  7  8  9  10  11  12  13  14  15  16  26  30  31  32  33  35 0
 6-311+G(2d,p)
 ****
 37  38 0
 6-311+G(2d,p)
 ****
 1  2  3  4  5  17  18  19  20  21  22  23  24  25 0
 3-21G
 ****
 27  28  29  34  36  39  40  41  42  43  44  45  46 0
 3-21G
 ****


