%nproc=1
%NoSave
%Mem=1900MB
#P OB98/GEN NMR

erre ene a

0 1
  C      193.624    -748.989     341.415
  O      194.047    -749.929     342.380
  H      194.332    -748.154     341.405
  H      192.630    -748.604     341.666
  H      193.606    -749.450     340.425
  P      193.117    -751.221     342.581
  C      195.092    -752.707     341.852
  O      193.749    -752.322     341.592
  C      195.561    -753.739     340.818
  O      194.768    -754.940     340.980
  C      195.403    -753.266     339.371
  O      196.513    -753.730     338.601
  C      194.137    -753.958     338.905
  O      194.103    -754.137     337.491
  C      194.183    -755.266     339.701
  N      190.249    -757.423     337.273
  C      191.494    -757.083     336.857
  N      192.483    -756.525     337.583
  C      192.110    -756.366     338.863
  C      190.885    -756.658     339.424
  C      189.917    -757.207     338.565
  N      188.644    -757.528     338.965
  N      190.866    -756.310     340.771
  C      192.073    -755.829     341.008
  N      192.853    -755.830     339.884
  O      191.652    -750.992     342.431
  O      193.586    -751.740     344.020
  H      193.209    -754.441     337.236
  H      194.555    -751.718     344.107
  H      191.721    -757.281     335.815
  H      192.428    -755.460     341.966
  H      194.803    -756.030     339.220
  H      193.256    -753.363     339.190
  H      195.325    -752.178     339.294
  H      196.603    -754.009     341.041
  H      195.176    -753.135     342.859
  H      188.014    -757.936     338.285
  H      188.380    -757.395     339.933
  H      195.720    -751.812     341.802
  P      197.757    -752.737     338.389
  C      199.637    -754.438     338.892
  O      198.979    -753.236     339.305
  O      197.451    -751.281     338.468
  O      198.253    -753.129     336.916
  H      198.542    -752.327     336.448
  H      200.427    -754.665     339.577
  H      200.043    -754.304     337.911
  H      198.933    -755.244     338.879

 6  7  8  9  10  11  12  13  14  15  25  28  32  33  34  35 0
 6-311+G(2d,p)
 ****
 36  39  40 0
 6-311+G(2d,p)
 ****
 1  2  3  4  5  16  17  18  19  20  21  22  23  24 0
 3-21G
 ****
 26  27  29  30  31  37  38  41  42  43  44  45  46  47 0
 3-21G
 ****
 48 0
 3-21G
 ****


