%nproc=1
%NoSave
%Mem=1900MB
#P OB98/GEN NMR

erre ene a

0 1
  C      271.071     476.575     299.958
  O      270.123     476.139     298.977
  P      269.566     477.120     297.833
  C      270.842     475.755     296.060
  O      270.553     477.053     296.570
  C      270.911     475.750     294.530
  O      269.588     475.776     293.958
  C      271.652     476.939     293.924
  O      273.051     476.754     294.021
  C      271.095     476.944     292.505
  O      271.776     475.972     291.694
  C      269.639     476.530     292.732
  N      267.454     480.289     290.037
  C      268.297     479.294     289.683
  N      268.839     478.333     290.461
  C      268.410     478.451     291.726
  C      267.554     479.417     292.239
  C      267.066     480.374     291.331
  N      266.222     481.393     291.699
  N      267.363     479.232     293.590
  C      268.076     478.161     293.889
  N      268.726     477.657     292.797
  O      269.266     478.504     298.306
  O      268.234     476.402     297.300
  H      271.734     475.120     292.162
  H      267.616     477.078     296.959
  H      268.575     479.268     288.630
  H      268.148     477.719     294.872
  H      269.281     475.863     291.940
  H      271.210     477.918     292.012
  H      271.356     477.862     294.435
  H      271.381     474.809     294.218
  H      270.053     475.070     296.392
  H      265.944     482.059     290.996
  H      265.964     481.492     292.669
  H      271.800     475.421     296.476
  P      273.948     477.803     294.834
  C      273.879     476.038     296.693
  O      273.833     477.419     296.386
  O      273.707     479.241     294.514
  O      275.452     477.372     294.478
  H      276.028     478.161     294.513
  H      272.894     475.594     296.510
  H      274.129     475.925     297.753
  H      274.632     475.525     296.095
  H      271.301     475.764     300.617
  H      270.655     477.385     300.521
  H      271.965     476.902     299.469

 3  4  5  6  7  8  9  10  11  12  22  25  29  30  31  32 0
 6-311+G(2d,p)
 ****
 33  36  37 0
 6-311+G(2d,p)
 ****
 1  2  13  14  15  16  17  18  19  20  21  23  24  26 0
 3-21G
 ****
 27  28  34  35  38  39  40  41  42  43  44  45  46  47  48 0
 3-21G
 ****


