%nproc=1
%NoSave
%Mem=1900MB
#P OB98/GEN NMR

erre ene a

0 1
  C      -19.372     154.028     218.187
  O      -19.662     153.568     219.509
  P      -18.807     153.937     220.804
  C      -18.589     151.411     221.487
  O      -18.945     152.733     221.854
  C      -19.082     150.347     222.492
  O      -20.406     149.897     222.110
  C      -18.179     149.116     222.457
  O      -16.970     149.095     223.206
  C      -19.109     147.947     222.754
  O      -19.135     147.595     224.137
  C      -20.481     148.467     222.312
  N      -21.880     144.105     220.025
  C      -21.345     144.298     221.290
  N      -21.106     143.199     222.020
  N      -21.059     145.483     221.778
  C      -21.267     146.494     220.909
  C      -21.763     146.430     219.626
  C      -22.141     145.123     219.113
  O      -22.625     144.900     218.011
  N      -21.821     147.663     219.040
  C      -21.322     148.482     219.955
  N      -20.975     147.816     221.113
  O      -18.986     155.320     221.331
  O      -17.281     153.806     220.291
  H      -19.673     146.794     224.240
  H      -16.758     154.475     220.781
  H      -22.107     143.181     219.705
  H      -21.199     149.547     219.828
  H      -21.238     148.306     223.088
  H      -18.785     147.050     222.212
  H      -21.190     142.264     221.654
  H      -17.864     148.984     221.415
  H      -20.520     143.317     222.848
  H      -19.184     150.785     223.495
  H      -17.503     151.384     221.411
  H      -18.985     151.179     220.492
  P      -15.499     148.906     222.610
  C      -14.842     146.522     223.288
  O      -14.698     147.908     223.570
  O      -14.781     150.312     222.893
  O      -15.440     148.568     221.153
  H      -13.979     150.408     222.349
  H      -14.523     145.948     224.176
  H      -14.213     146.249     222.441
  H      -15.883     146.275     223.063
  H      -20.098     153.635     217.506
  H      -18.396     153.696     217.900
  H      -19.405     155.097     218.166

 3  4  5  6  7  8  9  10  11  12  23  26  30  31 0
 6-311+G(2d,p)
 ****
 33  35  36  37  38 0
 6-311+G(2d,p)
 ****
 1  2  13  14  15  16  17  18  19  20  21  22  24  25 0
 3-21G
 ****
 27  28  29  32  34  39  40  41  42  43  44  45  46  47  48  49 0
 3-21G
 ****


