%nproc=1
%NoSave
%Mem=1900MB
#P OB98/GEN NMR

erre ene a

0 1
  C      199.066    -260.014     -78.209
  O      199.816    -258.900     -78.628
  P      199.594    -258.151     -80.017
  C      201.845    -258.712     -81.226
  O      201.025    -257.728     -80.604
  C      203.335    -258.345     -81.102
  O      203.608    -257.238     -82.002
  C      203.683    -257.859     -79.681
  O      204.922    -258.352     -79.192
  C      203.524    -256.350     -79.788
  O      204.205    -255.633     -78.768
  C      203.992    -256.092     -81.219
  N      204.698    -251.172     -82.307
  C      205.617    -252.107     -81.872
  N      206.828    -251.626     -81.511
  N      205.351    -253.386     -81.771
  C      204.068    -253.698     -82.054
  C      203.068    -252.858     -82.496
  C      203.383    -251.457     -82.641
  O      202.567    -250.576     -82.909
  N      201.868    -253.514     -82.624
  C      202.133    -254.742     -82.221
  N      203.450    -254.892     -81.838
  O      198.485    -257.150     -80.073
  O      199.183    -259.379     -80.988
  H      205.164    -255.756     -78.917
  H      198.541    -259.033     -81.637
  H      204.935    -250.188     -82.290
  H      201.412    -255.549     -82.160
  H      205.075    -255.987     -81.272
  H      202.455    -256.122     -79.678
  H      207.011    -250.634     -81.441
  H      202.954    -258.245     -78.961
  H      207.426    -252.243     -80.965
  H      203.945    -259.194     -81.422
  H      201.549    -258.741     -82.277
  H      201.657    -259.701     -80.795
  P      205.306    -258.797     -77.706
  C      207.175    -257.075     -77.350
  O      206.850    -258.445     -77.450
  O      205.307    -260.399     -77.747
  O      204.376    -258.308     -76.651
  H      204.925    -260.744     -76.915
  H      208.260    -256.962     -77.452
  H      206.875    -256.696     -76.368
  H      206.678    -256.494     -78.136
  H      199.406    -260.331     -77.245
  H      199.190    -260.812     -78.911
  H      198.032    -259.746     -78.152

 3  4  5  6  7  8  9  10  11  12  23  26  30  31 0
 6-311+G(2d,p)
 ****
 33  35  36  37  38 0
 6-311+G(2d,p)
 ****
 1  2  13  14  15  16  17  18  19  20  21  22  24  25 0
 3-21G
 ****
 27  28  29  32  34  39  40  41  42  43  44  45  46  47  48  49 0
 3-21G
 ****


