%nproc=1
%NoSave
%Mem=1900MB
#P OB98/GEN NMR

erre ene a

0 1
  C     -120.566     -22.024     220.028
  O     -120.776     -20.629     219.953
  H     -119.978     -22.240     220.923
  H     -120.014     -22.379     219.153
  H     -121.522     -22.548     220.105
  P     -121.520     -20.038     218.657
  C     -119.865     -18.121     218.107
  O     -120.331     -19.419     217.769
  C     -119.632     -17.296     216.842
  O     -119.216     -15.954     217.167
  C     -118.534     -17.829     215.924
  O     -118.918     -18.987     215.197
  C     -118.331     -16.619     215.027
  O     -119.409     -16.536     214.077
  C     -118.411     -15.465     216.056
  N     -117.096     -15.031     216.529
  C     -116.305     -14.319     215.618
  O     -116.717     -14.085     214.481
  N     -115.046     -13.922     216.003
  C     -114.609     -14.224     217.185
  N     -113.336     -13.847     217.500
  C     -115.414     -14.956     218.182
  C     -116.633     -15.331     217.794
  O     -122.671     -19.120     218.917
  O     -121.918     -21.332     217.804
  H     -119.339     -17.315     213.497
  H     -122.394     -21.020     216.994
  H     -114.999     -15.190     219.152
  H     -117.278     -15.885     218.462
  H     -118.937     -14.602     215.632
  H     -117.399     -16.656     214.457
  H     -117.611     -18.012     216.483
  H     -120.592     -17.218     216.315
  H     -112.799     -13.385     216.780
  H     -118.941     -18.228     218.682
  H     -112.835     -14.276     218.272
  H     -120.607     -17.604     218.722
  P     -118.133     -20.355     215.494
  C     -116.173     -19.876     213.840
  O     -116.582     -20.072     215.186
  O     -118.593     -21.298     214.287
  O     -118.385     -20.972     216.835
  H     -119.356     -21.852     214.543
  H     -115.118     -19.701     213.810
  H     -116.687     -19.031     213.430
  H     -116.406     -20.748     213.266

 6  7  8  9  10  11  12  13  14  15  16  26  30  31  32  33  35 0
 6-311+G(2d,p)
 ****
 37  38 0
 6-311+G(2d,p)
 ****
 1  2  3  4  5  17  18  19  20  21  22  23  24  25 0
 3-21G
 ****
 27  28  29  34  36  39  40  41  42  43  44  45  46 0
 3-21G
 ****


