%nproc=1
%NoSave
%Mem=1900MB
#P OB98/GEN NMR

erre ene a

0 1
  C     -172.180     -69.831     -69.954
  O     -171.381     -70.533     -69.024
  H     -172.088     -68.759     -69.758
  H     -173.227     -70.121     -69.836
  H     -171.850     -70.032     -70.977
  P     -171.211     -72.111     -69.266
  C     -172.815     -74.151     -69.183
  O     -172.602     -72.789     -68.840
  C     -174.086     -74.669     -68.518
  O     -173.885     -74.821     -67.095
  C     -175.296     -73.756     -68.682
  O     -175.941     -73.951     -69.933
  C     -176.169     -74.239     -67.535
  O     -176.801     -75.484     -67.895
  C     -175.131     -74.472     -66.428
  N     -172.911     -72.798     -62.189
  C     -172.930     -74.065     -62.740
  N     -172.273     -75.028     -62.060
  N     -173.544     -74.366     -63.856
  C     -174.170     -73.307     -64.422
  C     -174.219     -72.005     -63.975
  C     -173.531     -71.685     -62.744
  O     -173.461     -70.574     -62.225
  N     -174.942     -71.210     -64.824
  C     -175.346     -72.030     -65.774
  N     -174.910     -73.318     -65.573
  O     -170.210     -72.560     -68.096
  O     -170.688     -72.502     -70.606
  H     -176.114     -76.041     -68.304
  H     -169.625     -73.265     -68.436
  H     -172.432     -72.623     -61.323
  H     -175.950     -71.746     -66.623
  H     -175.400     -75.309     -65.774
  H     -176.963     -73.536     -67.285
  H     -171.821     -74.875     -61.169
  H     -175.032     -72.704     -68.521
  H     -172.244     -75.958     -62.460
  H     -174.297     -75.667     -68.927
  H     -171.960     -74.745     -68.841
  H     -172.896     -74.236     -70.270
  P     -176.473     -72.646     -70.707
  C     -178.080     -70.703     -70.081
  O     -177.567     -71.986     -69.736
  O     -177.357     -73.266     -71.890
  O     -175.409     -71.737     -71.217
  H     -177.430     -72.625     -72.623
  H     -178.794     -70.395     -69.346
  H     -178.554     -70.754     -71.039
  H     -177.278     -69.996     -70.117

 6  7  8  9  10  11  12  13  14  15  26  29  33  34 0
 6-311+G(2d,p)
 ****
 36  38  39  40  41 0
 6-311+G(2d,p)
 ****
 1  2  3  4  5  16  17  18  19  20  21  22  23  24  25 0
 3-21G
 ****
 27  28  30  31  32  35  37  42  43  44  45  46  47 0
 3-21G
 ****
 48  49 0
 3-21G
 ****


