%nproc=1
%NoSave
%Mem=1900MB
#P OB98/GEN NMR

erre ene a

0 1
  C      152.128     134.222    -198.955
  O      153.017     134.299    -200.052
  H      151.826     135.236    -198.680
  H      152.626     133.764    -198.098
  H      151.235     133.650    -199.218
  P      153.495     132.940    -200.755
  C      154.641     134.304    -202.621
  O      154.789     133.297    -201.628
  C      156.013     134.723    -203.142
  O      156.834     135.204    -202.056
  C      156.800     133.589    -203.785
  O      156.315     133.299    -205.081
  C      158.208     134.159    -203.743
  O      158.425     135.074    -204.827
  C      158.207     134.897    -202.387
  N      158.848     134.128    -201.321
  C      160.223     133.939    -201.432
  O      160.887     134.355    -202.379
  N      160.809     133.225    -200.422
  C      160.157     132.599    -199.400
  O      160.722     131.894    -198.570
  C      158.704     132.811    -199.347
  C      158.126     133.555    -200.292
  O      152.435     132.178    -201.477
  O      154.105     132.086    -199.544
  H      158.547     134.528    -205.628
  H      153.480     131.379    -199.298
  H      161.801     133.067    -200.492
  H      158.154     132.344    -198.542
  H      157.055     133.718    -200.273
  H      158.731     135.857    -202.477
  H      158.970     133.383    -203.822
  H      156.761     132.697    -203.149
  H      155.872     135.551    -203.852
  H      154.141     135.169    -202.172
  H      154.018     133.914    -203.433
  P      155.503     131.947    -205.347
  C      156.221     131.932    -207.814
  O      156.185     131.202    -206.592
  O      154.021     132.098    -205.435
  O      155.904     131.014    -204.108
  H      155.101     130.787    -203.601
  H      156.695     131.340    -208.569
  H      156.772     132.838    -207.672
  H      155.223     132.166    -208.119

 6  7  8  9  10  11  12  13  14  15  16  26  31  32  33  34  35 0
 6-311+G(2d,p)
 ****
 36  37 0
 6-311+G(2d,p)
 ****
 1  2  3  4  5  17  18  19  20  21  22  23  24  25 0
 3-21G
 ****
 27  28  29  30  38  39  40  41  42  43  44  45 0
 3-21G
 ****


