%nproc=1
%NoSave
%Mem=1900MB
#P OB98/GEN NMR

erre ene a

0 1
  C     1062.384     584.875    -538.427
  O     1061.325     585.551    -539.072
  H     1062.390     585.159    -537.373
  H     1063.348     585.154    -538.867
  H     1062.238     583.793    -538.498
  P     1061.175     585.393    -540.661
  C     1058.701     584.645    -540.453
  O     1059.600     585.628    -540.932
  C     1057.341     585.271    -540.143
  O     1057.386     586.027    -538.909
  C     1056.850     586.266    -541.197
  O     1056.381     585.645    -542.389
  C     1055.721     586.935    -540.410
  O     1054.589     586.060    -540.365
  C     1056.379     587.063    -539.009
  N     1056.993     588.389    -538.792
  C     1056.188     589.344    -538.170
  O     1055.038     589.089    -537.830
  N     1056.701     590.610    -537.973
  C     1057.914     590.886    -538.385
  N     1058.350     592.172    -538.215
  C     1058.787     589.897    -539.032
  C     1058.279     588.671    -539.210
  O     1061.753     584.158    -541.265
  O     1061.802     586.746    -541.261
  H     1054.148     586.108    -541.232
  H     1061.743     586.694    -542.243
  H     1059.777     590.177    -539.359
  H     1058.852     587.907    -539.685
  H     1055.638     586.889    -538.216
  H     1055.389     587.886    -540.852
  H     1057.624     587.012    -541.412
  H     1056.630     584.450    -540.000
  H     1057.706     592.828    -537.808
  H     1059.138     584.193    -539.548
  H     1059.139     592.519    -538.744
  H     1058.551     583.861    -541.200
  P     1056.930     586.222    -543.795
  C     1057.505     583.786    -544.495
  O     1056.865     585.009    -544.832
  O     1058.488     586.417    -543.515
  O     1056.245     587.471    -544.278
  H     1058.677     587.337    -543.230
  H     1057.369     583.082    -545.289
  H     1057.077     583.396    -543.595
  H     1058.550     583.959    -544.347

 6  7  8  9  10  11  12  13  14  15  16  26  30  31  32  33  35 0
 6-311+G(2d,p)
 ****
 37  38 0
 6-311+G(2d,p)
 ****
 1  2  3  4  5  17  18  19  20  21  22  23  24  25 0
 3-21G
 ****
 27  28  29  34  36  39  40  41  42  43  44  45  46 0
 3-21G
 ****


