%nproc=1
%NoSave
%Mem=1900MB
#P OB98/GEN NMR

erre ene a

0 1
  C     -895.250    -300.279    -898.840
  O     -896.560    -299.912    -898.470
  H     -894.550    -299.506    -898.510
  H     -895.180    -300.364    -899.930
  H     -894.960    -301.229    -898.380
  P     -897.720    -300.986    -898.710
  C     -898.580    -300.625    -896.290
  O     -898.150    -301.551    -897.270
  C     -897.430    -300.278    -895.340
  O     -896.310    -299.730    -896.120
  C     -897.800    -299.229    -894.270
  O     -897.160    -299.574    -893.050
  C     -897.200    -297.938    -894.810
  O     -896.920    -296.984    -893.780
  C     -895.960    -298.466    -895.550
  N     -895.520    -297.530    -896.590
  C     -894.270    -296.929    -896.390
  O     -893.600    -297.193    -895.390
  N     -893.830    -296.012    -897.310
  C     -894.610    -295.653    -898.280
  N     -894.130    -294.701    -899.140
  C     -895.970    -296.202    -898.480
  C     -896.340    -297.124    -897.620
  O     -896.960    -302.220    -899.380
  O     -898.870    -300.511    -899.550
  H     -896.340    -297.424    -893.130
  H     -897.530    -302.705    -900.000
  H     -896.590    -295.844    -899.310
  H     -897.330    -297.585    -897.680
  H     -895.140    -298.630    -894.860
  H     -897.890    -297.480    -895.520
  H     -898.880    -299.148    -894.120
  H     -897.070    -301.198    -894.870
  H     -893.200    -294.339    -898.960
  H     -899.390    -301.073    -895.720
  H     -894.670    -294.323    -899.900
  H     -898.950    -299.713    -896.790
  P     -897.930    -300.631    -892.110
  C     -896.150    -302.534    -892.130
  O     -897.450    -302.113    -892.530
  O     -899.440    -300.561    -892.630
  O     -897.830    -300.307    -890.650
  H     -900.000    -300.103    -891.970
  H     -895.975    -303.530    -892.478
  H     -896.081    -302.512    -891.062
  H     -895.417    -301.876    -892.549

 6  7  8  9  10  11  12  13  14  15  16  26  30  31  32  33  35 0
 6-311+G(2d,p)
 ****
 37  38 0
 6-311+G(2d,p)
 ****
 1  2  3  4  5  17  18  19  20  21  22  23  24  25 0
 3-21G
 ****
 27  28  29  34  36  39  40  41  42  43  44  45  46 0
 3-21G
 ****


