%nproc=1
%NoSave
%Mem=1900MB
#P OB98/GEN NMR

erre ene a

0 1
  C      -66.326     -16.628    -114.244
  O      -66.869     -16.404    -112.955
  P      -68.359     -16.945    -112.688
  C      -68.974     -14.516    -111.956
  O      -69.315     -15.661    -112.720
  C      -69.366     -13.252    -112.724
  O      -68.739     -13.238    -114.021
  C      -70.862     -13.109    -112.972
  O      -71.508     -12.585    -111.827
  C      -70.882     -12.173    -114.174
  O      -70.715     -10.803    -113.762
  C      -69.668     -12.659    -114.979
  N      -71.634     -13.287    -119.592
  C      -71.618     -12.171    -118.777
  N      -72.169     -11.048    -119.287
  N      -71.108     -12.156    -117.575
  C      -70.605     -13.353    -117.192
  C      -70.575     -14.531    -117.901
  C      -71.095     -14.519    -119.248
  O      -71.044     -15.452    -120.044
  N      -70.004     -15.541    -117.172
  C      -69.662     -14.965    -116.038
  N      -69.985     -13.633    -116.006
  O      -68.319     -17.367    -111.148
  O      -68.798     -18.063    -113.581
  H      -70.481     -10.262    -114.536
  H      -68.185     -18.330    -111.056
  H      -72.025     -13.234    -120.515
  H      -69.161     -15.461    -115.221
  H      -69.145     -11.832    -115.474
  H      -71.830     -12.221    -114.718
  H      -72.603     -10.991    -120.195
  H      -71.297     -14.077    -113.251
  H      -72.171     -10.221    -118.702
  H      -68.988     -12.388    -112.162
  H      -67.895     -14.509    -111.779
  H      -69.492     -14.559    -110.992
  P      -72.664     -13.473    -111.156
  C      -74.215     -11.419    -110.822
  O      -74.047     -12.704    -111.390
  O      -72.391     -13.308    -109.588
  O      -72.653     -14.908    -111.561
  H      -72.596     -14.144    -109.130
  H      -74.896     -10.843    -111.453
  H      -73.265     -10.884    -110.742
  H      -74.655     -11.522    -109.827
  H      -65.337     -16.222    -114.290
  H      -66.941     -16.151    -114.978
  H      -66.290     -17.680    -114.438

 3  4  5  6  7  8  9  10  11  12  23  26  30  31 0
 6-311+G(2d,p)
 ****
 33  35  36  37  38 0
 6-311+G(2d,p)
 ****
 1  2  13  14  15  16  17  18  19  20  21  22  24  25 0
 3-21G
 ****
 27  28  29  32  34  39  40  41  42  43  44  45  46  47  48  49 0
 3-21G
 ****


