%nproc=1
%NoSave
%Mem=1900MB
#P OB98/GEN NMR

erre ene a

0 1
  C       79.988      61.620     -35.069
  O       80.471      62.800     -34.454
  P       79.967      63.204     -32.990
  C       77.920      64.613     -33.761
  O       79.182      64.594     -33.132
  C       77.255      65.990     -33.628
  O       76.018      65.960     -34.381
  C       76.868      66.380     -32.206
  O       76.663      67.793     -32.162
  C       75.544      65.668     -32.038
  O       74.763      66.223     -30.983
  C       74.922      65.779     -33.453
  N       74.151      64.572     -33.801
  C       72.776      64.727     -33.953
  O       72.213      65.819     -33.886
  N       72.057      63.572     -34.102
  C       72.574      62.311     -34.063
  O       71.903      61.302     -33.888
  C       74.041      62.225     -34.141
  C       74.754      63.343     -33.982
  O       81.325      63.607     -32.246
  O       79.232      62.134     -32.260
  H       75.222      65.997     -30.140
  H       81.661      62.853     -31.727
  H       71.050      63.675     -34.067
  H       74.488      61.248     -34.263
  H       75.840      63.302     -33.982
  H       74.251      66.643     -33.528
  H       75.732      64.616     -31.792
  H       77.593      66.078     -31.444
  H       77.905      66.751     -34.075
  H       77.287      63.835     -33.324
  H       78.021      64.369     -34.824
  P       76.897      68.542     -30.763
  C       74.883      67.939     -29.290
  O       75.441      68.880     -30.184
  O       77.861      69.681     -30.785
  O       77.394      67.360     -29.800
  H       77.845      67.737     -29.023
  H       74.215      68.460     -28.600
  H       75.657      67.425     -28.714
  H       74.305      67.204     -29.856
  H       80.432      61.515     -36.037
  H       78.924      61.680     -35.169
  H       80.242      60.774     -34.466

 3  4  5  6  7  8  9  10  11  12  13  23  28  29  30  31  32 0
 6-311+G(2d,p)
 ****
 33  34 0
 6-311+G(2d,p)
 ****
 1  2  14  15  16  17  18  19  20  21  22  24  25  26  27 0
 3-21G
 ****
 35  36  37  38  39  40  41  42  43  44  45 0
 3-21G
 ****


