%nproc=1
%NoSave
%Mem=1900MB
#P OB98/GEN NMR

erre ene a

0 1
  C      229.043      52.351      25.886
  O      228.458      51.072      25.760
  H      228.283      53.108      25.680
  H      229.855      52.466      25.162
  H      229.425      52.507      26.898
  P      229.305      49.786      26.206
  C      229.654      49.292      23.699
  O      230.264      49.414      24.978
  C      230.726      49.124      22.626
  O      231.585      50.282      22.593
  C      231.648      47.930      22.851
  O      230.999      46.720      22.510
  C      232.818      48.305      21.954
  O      232.532      47.994      20.582
  C      232.894      49.836      22.170
  N      233.919      50.230      23.133
  C      235.220      50.332      22.648
  O      235.524      50.070      21.485
  N      236.168      50.729      23.554
  C      235.959      50.948      24.886
  O      236.855      51.252      25.668
  C      234.573      50.793      25.350
  C      233.633      50.450      24.467
  O      228.512      48.644      26.752
  O      230.324      50.368      27.295
  H      232.300      47.044      20.554
  H      229.999      50.166      28.192
  H      237.117      50.796      23.224
  H      234.372      50.952      26.401
  H      232.606      50.324      24.792
  H      233.105      50.343      21.220
  H      233.734      47.772      22.214
  H      231.994      47.908      23.891
  H      230.224      49.050      21.651
  H      229.076      50.202      23.497
  H      228.977      48.433      23.711
  P      231.416      45.343      23.208
  C      232.499      44.632      20.997
  O      232.676      44.754      22.403
  O      230.303      44.371      23.419
  O      232.061      45.796      24.603
  H      231.440      45.598      25.334
  H      233.390      44.233      20.559
  H      232.296      45.595      20.578
  H      231.678      43.976      20.796

 6  7  8  9  10  11  12  13  14  15  16  26  31  32  33  34  35 0
 6-311+G(2d,p)
 ****
 36  37 0
 6-311+G(2d,p)
 ****
 1  2  3  4  5  17  18  19  20  21  22  23  24  25 0
 3-21G
 ****
 27  28  29  30  38  39  40  41  42  43  44  45 0
 3-21G
 ****


