%nproc=1
%NoSave
%Mem=1900MB
#P OB98/GEN NMR

erre ene a

0 1
  C      -29.004    -568.937    -180.481
  O      -29.735    -568.423    -179.377
  P      -30.900    -569.348    -178.776
  C      -32.513    -569.022    -176.761
  O      -31.227    -568.788    -177.312
  C      -32.864    -567.929    -175.734
  O      -31.978    -568.030    -174.605
  C      -32.708    -566.507    -176.260
  O      -33.797    -566.150    -177.101
  C      -32.666    -565.745    -174.934
  O      -33.988    -565.582    -174.402
  C      -31.848    -566.698    -174.043
  N      -28.424    -563.203    -172.473
  C      -29.776    -563.238    -172.409
  N      -30.616    -564.206    -172.869
  C      -29.926    -565.188    -173.447
  C      -28.556    -565.284    -173.612
  C      -27.776    -564.237    -173.085
  N      -26.413    -564.204    -173.155
  N      -28.203    -566.454    -174.260
  C      -29.358    -567.056    -174.487
  N      -30.429    -566.352    -173.988
  O      -30.155    -570.729    -178.481
  O      -32.090    -569.534    -179.675
  H      -34.430    -564.884    -174.924
  H      -30.745    -571.494    -178.623
  H      -30.250    -562.393    -171.924
  H      -29.470    -568.011    -175.003
  H      -32.215    -566.724    -173.009
  H      -32.228    -564.740    -175.031
  H      -31.767    -566.393    -176.797
  H      -33.887    -568.111    -175.382
  H      -32.536    -569.990    -176.265
  H      -25.942    -563.334    -172.905
  H      -25.947    -564.884    -173.740
  H      -33.256    -569.033    -177.570
  P      -33.799    -564.656    -177.693
  C      -35.002    -563.661    -179.751
  O      -34.459    -564.833    -179.164
  O      -32.246    -564.433    -178.034
  O      -34.436    -563.635    -176.819
  H      -31.868    -565.189    -178.523
  H      -35.354    -563.912    -180.743
  H      -34.238    -562.877    -179.827
  H      -35.847    -563.303    -179.150
  H      -28.263    -568.225    -180.781
  H      -29.672    -569.122    -181.296
  H      -28.526    -569.851    -180.198

 3  4  5  6  7  8  9  10  11  12  22  25  29  30  31  32 0
 6-311+G(2d,p)
 ****
 33  36  37 0
 6-311+G(2d,p)
 ****
 1  2  13  14  15  16  17  18  19  20  21  23  24  26 0
 3-21G
 ****
 27  28  34  35  38  39  40  41  42  43  44  45  46  47  48 0
 3-21G
 ****


