%nproc=1
%NoSave
%Mem=1900MB
#P OB98/GEN NMR

erre ene a

0 1
  C     -214.482     -61.059      25.473
  O     -214.550     -60.439      26.740
  H     -214.176     -62.105      25.577
  H     -215.472     -61.024      25.010
  H     -213.774     -60.526      24.831
  P     -213.214     -60.482      27.628
  C     -214.333     -62.099      29.317
  O     -213.247     -61.872      28.431
  C     -213.822     -62.618      30.656
  O     -213.228     -63.922      30.489
  C     -212.739     -61.761      31.300
  O     -213.280     -60.615      31.944
  C     -212.160     -62.748      32.303
  O     -212.998     -62.798      33.473
  C     -212.239     -64.080      31.542
  N     -207.957     -66.844      32.168
  C     -209.029     -66.648      32.968
  N     -210.123     -65.895      32.743
  C     -210.059     -65.310      31.536
  C     -209.032     -65.415      30.611
  C     -207.936     -66.220      30.967
  N     -206.840     -66.399      30.150
  N     -209.320     -64.687      29.478
  C     -210.499     -64.147      29.710
  N     -210.985     -64.491      30.945
  O     -213.488     -59.391      28.770
  O     -211.948     -60.197      26.892
  H     -212.719     -63.585      33.982
  H     -212.649     -58.942      28.986
  H     -209.005     -67.175      33.921
  H     -211.038     -63.513      29.017
  H     -212.590     -64.893      32.189
  H     -211.153     -62.483      32.634
  H     -211.965     -61.486      30.574
  H     -214.685     -62.726      31.327
  H     -215.011     -62.842      28.880
  H     -206.190     -67.131      30.370
  H     -206.840     -65.932      29.249
  H     -214.878     -61.159      29.455
  P     -212.412     -59.264      31.903
  C     -212.490     -59.393      34.493
  O     -211.695     -59.168      33.333
  O     -213.526     -58.118      31.971
  O     -211.533     -59.115      30.708
  H     -213.184     -57.296      31.565
  H     -211.881     -59.297      35.367
  H     -212.906     -60.378      34.455
  H     -213.281     -58.673      34.528

 6  7  8  9  10  11  12  13  14  15  25  28  32  33  34  35 0
 6-311+G(2d,p)
 ****
 36  39  40 0
 6-311+G(2d,p)
 ****
 1  2  3  4  5  16  17  18  19  20  21  22  23  24 0
 3-21G
 ****
 26  27  29  30  31  37  38  41  42  43  44  45  46  47  48 0
 3-21G
 ****


