%nproc=1
%NoSave
%Mem=1900MB
#P OB98/GEN NMR

erre ene a

0 1
  C      112.733     512.707     -18.696
  O      112.508     514.040     -19.112
  H      111.941     512.073     -19.100
  H      112.714     512.646     -17.605
  H      113.696     512.352     -19.072
  P      113.582     515.133     -18.637
  C      112.544     515.254     -16.258
  O      112.895     515.954     -17.444
  C      112.455     516.233     -15.090
  O      113.774     516.739     -14.777
  C      111.606     517.462     -15.382
  O      110.217     517.196     -15.279
  C      112.115     518.427     -14.322
  O      111.472     518.207     -13.060
  C      113.604     518.068     -14.231
  N      114.888     522.991     -14.631
  C      114.089     522.334     -13.762
  N      113.807     521.017     -13.716
  C      114.476     520.356     -14.677
  C      115.326     520.887     -15.629
  C      115.529     522.275     -15.586
  N      116.321     522.950     -16.486
  N      115.788     519.897     -16.474
  C      115.235     518.786     -16.031
  N      114.436     519.013     -14.947
  O      113.599     516.172     -19.855
  O      114.941     514.596     -18.344
  H      111.486     517.241     -12.910
  H      114.373     515.997     -20.422
  H      113.605     522.953     -13.012
  H      115.374     517.804     -16.464
  H      113.960     518.041     -13.193
  H      111.931     519.459     -14.615
  H      111.851     517.862     -16.370
  H      112.077     515.696     -14.211
  H      113.309     514.501     -16.042
  H      111.583     514.751     -16.416
  H      116.369     523.952     -16.436
  H      116.714     522.441     -17.268
  P      109.359     517.210     -16.636
  C      108.279     519.575     -16.420
  O      108.096     518.165     -16.388
  O      108.723     515.744     -16.698
  O      110.143     517.527     -17.864
  H      108.672     515.443     -17.626
  H      107.343     520.060     -16.237
  H      108.649     519.865     -17.381
  H      108.983     519.861     -15.666

 6  7  8  9  10  11  12  13  14  15  25  28  32  33  34  35 0
 6-311+G(2d,p)
 ****
 36  37  40 0
 6-311+G(2d,p)
 ****
 1  2  3  4  5  16  17  18  19  20  21  22  23  24 0
 3-21G
 ****
 26  27  29  30  31  38  39 41  42  43  44  45  46  47  48 0
 3-21G
 ****


