%nproc=1
%NoSave
%Mem=1900MB
#P OB98/GEN NMR

erre ene a

0 1
  C      120.233      60.563    -125.337
  O      121.067      60.106    -124.292
  H      120.697      60.312    -126.296
  H      120.122      61.650    -125.279
  H      119.248      60.088    -125.291
  P      120.501      60.104    -122.790
  C      121.830      62.159    -121.971
  O      120.550      61.627    -122.280
  C      121.703      63.384    -121.058
  O      121.106      64.475    -121.828
  C      120.807      63.155    -119.819
  O      121.330      63.970    -118.762
  C      119.477      63.693    -120.317
  O      118.567      63.890    -119.270
  C      119.963      64.933    -121.076
  N      118.948      65.516    -121.947
  C      118.278      66.646    -121.483
  O      118.505      67.181    -120.402
  N      117.306      67.142    -122.314
  C      116.946      66.633    -123.529
  O      116.084      67.134    -124.243
  C      117.672      65.422    -123.953
  C      118.625      64.926    -123.157
  O      121.116      59.108    -121.867
  O      118.930      59.843    -122.981
  H      118.738      58.896    -122.838
  H      118.824      64.671    -118.734
  H      116.809      67.961    -121.993
  H      117.399      64.979    -124.901
  H      119.181      64.036    -123.433
  H      120.321      65.698    -120.379
  H      119.014      62.976    -121.006
  H      120.782      62.108    -119.501
  H      122.708      63.714    -120.766
  H      122.319      62.444    -122.910
  H      122.433      61.387    -121.476
  P      122.453      63.461    -117.729
  C      120.986      63.520    -115.608
  O      121.742      62.713    -116.498
  O      123.402      64.536    -117.299
  O      123.237      62.290    -118.492
  H      124.182      62.319    -118.243
  H      120.567      62.906    -114.838
  H      120.198      64.003    -116.147
  H      121.623      64.259    -115.168

 6  7  8  9  10  11  12  13  14  15  16  27  31  32  33  34  35 0
 6-311+G(2d,p)
 ****
 36  37 0
 6-311+G(2d,p)
 ****
 1  2  3  4  5  17  18  19  20  21  22  23  24  25 0
 3-21G
 ****
 26  28  29  30  38  39  40  41  42  43  44  45 0
 3-21G
 ****


