%nproc=1
%NoSave
%Mem=1900MB
#P OB98/GEN NMR

erre ene a

0 1
  C      128.361     598.497     486.153
  O      127.216     598.288     485.348
  P      126.292     597.013     485.672
  C      126.480     594.957     484.061
  O      127.056     595.724     485.125
  C      127.053     595.415     482.727
  O      128.502     595.301     482.732
  C      126.588     594.576     481.542
  O      125.289     594.949     481.132
  C      127.663     594.878     480.500
  O      127.382     596.114     479.821
  C      128.930     595.025     481.382
  N      129.786     593.844     481.313
  C      130.484     593.664     480.117
  O      130.379     594.431     479.167
  N      131.280     592.558     480.050
  C      131.405     591.600     481.009
  O      132.089     590.585     480.878
  C      130.607     591.818     482.247
  C      129.854     592.906     482.334
  O      125.047     597.174     484.673
  O      125.848     596.918     487.089
  H      126.463     596.049     479.492
  H      124.232     596.862     485.104
  H      131.806     592.428     479.203
  H      130.686     591.077     483.022
  H      129.256     593.087     483.216
  H      129.507     595.896     481.060
  H      127.721     594.094     479.738
  H      126.627     593.511     481.798
  H      126.804     596.482     482.583
  H      125.390     595.112     484.074
  H      126.679     593.902     484.238
  P      124.635     594.129     479.915
  C      124.639     595.468     477.669
  O      125.362     594.701     478.601
  O      123.162     594.746     479.883
  O      124.680     592.648     480.111
  H      123.138     595.677     480.153
  H      123.884     596.099     478.160
  H      124.136     594.807     476.954
  H      125.333     596.108     477.121
  H      128.874     599.376     485.822
  H      129.013     597.652     486.072
  H      128.062     598.621     487.173

 3  4  5  6  7  8  9  10  11  12  13  23  28  29  30  31  32 0
 6-311+G(2d,p)
 ****
 33  34 0
 6-311+G(2d,p)
 ****
 1  2  14  15  16  17  18  19  20  21  22  24  25  26 0
 3-21G
 ****
 27  35  36  37  38  39  40  41  42  43  44  45 0
 3-21G
 ****


