%nproc=1
%NoSave
%Mem=1900MB
#P OB98/GEN NMR

erre ene a

0 1
  C     1401.862    -648.486    -375.994
  O     1402.289    -647.853    -377.194
  H     1402.134    -647.849    -375.153
  H     1402.348    -649.451    -375.878
  H     1400.774    -648.620    -376.008
  P     1402.008    -648.597    -378.586
  C     1402.149    -647.933    -381.084
  O     1402.219    -647.484    -379.729
  C     1401.717    -646.786    -381.987
  O     1400.467    -646.224    -381.542
  C     1402.715    -645.616    -382.036
  O     1403.779    -645.920    -382.922
  C     1401.816    -644.507    -382.521
  O     1401.583    -644.648    -383.952
  C     1400.511    -644.798    -381.751
  N     1399.390    -640.462    -379.340
  C     1399.425    -640.754    -380.691
  N     1399.177    -639.714    -381.519
  N     1399.708    -641.924    -381.180
  C     1400.023    -642.853    -380.241
  C     1400.033    -642.680    -378.874
  C     1399.675    -641.399    -378.335
  O     1399.609    -641.112    -377.137
  N     1400.463    -643.831    -378.238
  C     1400.659    -644.680    -379.229
  N     1400.419    -644.123    -380.452
  O     1400.700    -649.334    -378.689
  O     1403.267    -649.566    -378.777
  H     1400.993    -643.908    -384.200
  H     1403.082    -650.455    -378.405
  H     1399.194    -639.540    -379.011
  H     1400.985    -645.726    -379.084
  H     1399.614    -644.516    -382.315
  H     1402.221    -643.508    -382.366
  H     1399.231    -638.755    -381.219
  H     1403.083    -645.360    -381.036
  H     1399.230    -639.879    -382.518
  H     1401.551    -647.190    -382.989
  H     1401.422    -648.750    -381.127
  H     1403.126    -648.302    -381.406
  P     1405.090    -645.000    -382.988
  C     1407.615    -645.505    -383.308
  O     1406.285    -645.999    -383.422
  O     1405.366    -644.213    -381.726
  O     1404.906    -644.095    -384.289
  H     1404.426    -643.253    -384.113
  H     1408.304    -646.260    -383.625
  H     1407.813    -645.246    -382.289
  H     1407.727    -644.638    -383.925

 6  7  8  9  10  11  12  13  14  15  26  29  33  34 0
 6-311+G(2d,p)
 ****
 36  38  39  40  41 0
 6-311+G(2d,p)
 ****
 1  2  3  4  5  16  17  18  19  20  21  22  23  24  25 0
 3-21G
 ****
 27  28  30  31  32  35  37  42  43  44  45  46  47 0
 3-21G
 ****
 48  49 0
 3-21G
 ****


