%nproc=1
%NoSave
%Mem=1900MB
#P OB98/GEN NMR

erre ene a

0 1
  C     -359.157    -199.075    -645.430
  O     -358.609    -198.046    -646.230
  H     -359.466    -198.646    -644.473
  H     -358.407    -199.850    -645.242
  H     -360.028    -199.508    -645.926
  P     -358.053    -198.477    -647.673
  C     -356.035    -196.874    -647.622
  O     -357.297    -197.165    -648.215
  C     -355.512    -195.521    -648.121
  O     -356.457    -194.491    -647.744
  C     -354.151    -195.144    -647.536
  O     -353.372    -194.489    -648.537
  C     -354.500    -194.157    -646.437
  O     -353.425    -193.259    -646.149
  C     -355.746    -193.477    -647.008
  N     -358.240    -189.309    -645.460
  C     -357.594    -189.599    -646.608
  N     -356.966    -190.748    -646.949
  C     -357.100    -191.668    -645.966
  C     -357.721    -191.512    -644.746
  C     -358.313    -190.255    -644.493
  N     -358.953    -189.943    -643.318
  N     -357.603    -192.667    -643.992
  C     -356.931    -193.503    -644.759
  N     -356.584    -192.937    -645.956
  O     -359.059    -199.064    -648.604
  O     -356.837    -199.437    -647.279
  H     -353.692    -192.700    -645.393
  H     -356.307    -199.058    -646.551
  H     -357.568    -188.807    -647.350
  H     -356.658    -194.521    -644.490
  H     -355.505    -192.656    -647.692
  H     -354.742    -194.699    -645.517
  H     -353.609    -196.005    -647.148
  H     -355.483    -195.537    -649.220
  H     -355.308    -197.656    -647.869
  H     -359.357    -189.026    -643.230
  H     -359.029    -190.645    -642.594
  H     -356.168    -196.849    -646.539
  P     -351.892    -195.034    -648.828
  C     -350.835    -192.713    -649.240
  O     -351.141    -193.984    -649.795
  O     -351.790    -196.464    -649.234
  O     -351.150    -194.783    -647.425
  H     -350.535    -195.525    -647.259
  H     -350.342    -192.112    -649.975
  H     -350.193    -192.839    -648.393
  H     -351.740    -192.231    -648.934

 6  7  8  9  10  11  12  13  14  15  25  28  32  33  34  35 0
 6-311+G(2d,p)
 ****
 36  39  40 0
 6-311+G(2d,p)
 ****
 1  2  3  4  5  16  17  18  19  20  21  22  23  24 0
 3-21G
 ****
 26  27  29  30  31  37  38  41  42  43  44  45  46  47 0
 3-21G
 ****
 48 0
 3-21G
 ****


