%nproc=1
%NoSave
%Mem=1900MB
#P OB98/GEN NMR

erre ene a

0 1
  C       20.164     -81.155    -115.943
  O       21.038     -80.031    -115.834
  P       20.426     -78.732    -115.115
  C       20.197     -77.373    -117.311
  O       20.791     -77.459    -116.025
  C       21.256     -77.130    -118.391
  O       22.191     -76.090    -117.971
  C       22.093     -78.376    -118.725
  O       22.385     -78.312    -120.127
  C       23.348     -78.146    -117.900
  O       24.439     -78.958    -118.301
  C       23.517     -76.645    -118.098
  N       28.349     -76.530    -116.469
  C       27.735     -77.258    -117.427
  N       26.439     -77.233    -117.800
  C       25.757     -76.334    -117.070
  C       26.243     -75.521    -116.058
  C       27.612     -75.643    -115.760
  N       28.241     -74.922    -114.772
  N       25.226     -74.744    -115.525
  C       24.141     -75.144    -116.161
  N       24.425     -76.037    -117.154
  O       21.344     -78.555    -113.818
  O       18.979     -78.865    -114.775
  H       24.194     -79.903    -118.227
  H       20.898     -78.919    -113.032
  H       28.371     -77.957    -117.964
  H       23.132     -74.820    -115.944
  H       23.884     -76.399    -119.103
  H       23.137     -78.375    -116.849
  H       21.583     -79.318    -118.507
  H       20.751     -76.768    -119.295
  H       19.470     -76.558    -117.335
  H       29.226     -75.082    -114.630
  H       27.724     -74.259    -114.214
  H       19.635     -78.292    -117.507
  P       21.579     -79.270    -121.129
  C       23.134     -79.538    -123.151
  O       22.056     -78.813    -122.593
  O       20.120     -78.609    -121.057
  O       21.607     -80.727    -120.817
  H       20.163     -77.645    -121.190
  H       23.302     -79.183    -124.171
  H       22.898     -80.605    -123.181
  H       24.040     -79.371    -122.563
  H       20.674     -81.957    -116.435
  H       19.299     -80.881    -116.510
  H       19.864     -81.470    -114.965

 3  4  5  6  7  8  9  10  11  12  22  25  29  30  31  32 0
 6-311+G(2d,p)
 ****
 33  36  37 0
 6-311+G(2d,p)
 ****
 1  2  13  14  15  16  17  18  19  20  21  23  24  26 0
 3-21G
 ****
 27  28  34  35  38  39  40  41  42  43  44  45  46  47  48 0
 3-21G
 ****


