%nproc=1
%NoSave
%Mem=1900MB
#P OB98/GEN NMR

erre ene a

0 1
  C      633.587    -502.138     371.828
  O      634.279    -502.366     373.038
  H      633.945    -502.830     371.058
  H      632.519    -502.334     371.991
  H      633.702    -501.107     371.499
  P      635.835    -501.968     373.060
  C      636.574    -504.228     371.980
  O      636.514    -502.804     371.859
  C      636.565    -504.876     370.590
  O      637.592    -504.247     369.782
  C      636.848    -506.384     370.626
  O      636.026    -507.036     369.646
  C      638.312    -506.486     370.218
  O      638.627    -507.736     369.647
  C      638.438    -505.294     369.262
  N      642.740    -505.760     366.549
  C      641.498    -506.262     366.372
  N      640.402    -506.092     367.135
  C      640.672    -505.249     368.147
  C      641.889    -504.649     368.460
  C      642.970    -504.949     367.615
  N      644.233    -504.467     367.810
  N      641.761    -503.897     369.608
  C      640.510    -504.022     369.991
  N      639.802    -504.844     369.135
  O      636.362    -502.713     374.385
  O      636.136    -500.512     373.081
  H      639.591    -507.765     369.474
  H      636.118    -502.190     375.164
  H      641.381    -506.903     365.490
  H      640.055    -503.571     370.855
  H      638.083    -505.549     368.241
  H      638.949    -506.325     371.091
  H      636.667    -506.831     371.603
  H      635.602    -504.663     370.113
  H      635.696    -504.565     372.551
  H      644.958    -504.770     367.187
  H      644.424    -503.903     368.629
  H      637.486    -504.510     372.517
  P      634.828    -507.950     370.204
  C      636.134    -510.066     370.995
  O      635.422    -508.897     371.356
  O      634.568    -508.973     368.987
  O      633.604    -507.197     370.560
  H      633.611    -509.005     368.797
  H      636.456    -510.575     371.879
  H      636.987    -509.797     370.407
  H      635.497    -510.710     370.425

 6  7  8  9  10  11  12  13  14  15  25  28  32  33  34  35 0
 6-311+G(2d,p)
 ****
 36  39  40 0
 6-311+G(2d,p)
 ****
 1  2  3  4  5  16  17  18  19  20  21  22  23  24 0
 3-21G
 ****
 26  27  29  30  31  37  38  41  42  43  44  45  46  47 0
 3-21G
 ****
 48 0
 3-21G
 ****


