%nproc=1
%NoSave
%Mem=1900MB
#P OB98/GEN NMR

erre ene a

0 1
  C     1206.739    -101.418    -154.705
  O     1207.161    -102.753    -154.493
  P     1208.695    -103.117    -154.159
  C     1209.418    -102.374    -156.522
  O     1209.352    -103.444    -155.581
  C     1209.919    -102.896    -157.872
  O     1211.268    -103.390    -157.714
  C     1209.121    -104.060    -158.458
  O     1207.964    -103.697    -159.181
  C     1210.164    -104.630    -159.441
  O     1210.193    -103.837    -160.636
  C     1211.459    -104.476    -158.627
  N     1213.272    -109.254    -159.077
  C     1213.075    -108.256    -159.987
  N     1212.564    -107.033    -159.796
  C     1212.306    -106.835    -158.497
  C     1212.465    -107.718    -157.457
  C     1212.992    -108.992    -157.776
  N     1213.217    -109.984    -156.841
  N     1212.072    -107.150    -156.247
  C     1211.697    -105.926    -156.558
  N     1211.811    -105.698    -157.911
  O     1208.859    -104.135    -153.082
  O     1209.345    -101.700    -153.781
  H     1211.006    -104.051    -161.103
  H     1210.198    -101.844    -153.300
  H     1213.320    -108.514    -161.019
  H     1211.312    -105.207    -155.862
  H     1212.314    -104.221    -159.276
  H     1209.922    -105.666    -159.744
  H     1208.896    -104.821    -157.704
  H     1209.941    -102.055    -158.575
  H     1210.125    -101.633    -156.146
  H     1213.719    -110.809    -157.148
  H     1213.159    -109.720    -155.852
  H     1208.444    -101.914    -156.600
  P     1206.555    -104.211    -158.625
  C     1206.896    -106.582    -159.709
  O     1206.101    -105.401    -159.615
  O     1205.526    -103.143    -158.417
  O     1206.958    -104.986    -157.284
  H     1207.481    -105.798    -157.403
  H     1206.338    -107.326    -160.290
  H     1207.087    -106.990    -158.706
  H     1207.839    -106.350    -160.201
  H     1205.689    -101.404    -154.911
  H     1207.271    -101.004    -155.536
  H     1206.938    -100.837    -153.829

 3  4  5  6  7  8  9  10  11  12  22  25  29  30  31  32 0
 6-311+G(2d,p)
 ****
 33  36  37 0
 6-311+G(2d,p)
 ****
 1  2  13  14  15  16  17  18  19  20  21  23  24  26 0
 3-21G
 ****
 27  28  34  35  38  39  40  41  42  43  44  45  46  47  48 0
 3-21G
 ****


