%nproc=1
%NoSave
%Mem=1900MB
#P OB98/GEN NMR

erre ene a

0 1
  C     -547.303     916.137     108.061
  O     -548.336     917.125     107.963
  P     -548.927     917.402     106.503
  C     -551.436     916.792     106.919
  O     -550.461     917.822     106.669
  C     -552.744     917.409     107.422
  O     -552.657     917.776     108.816
  C     -553.129     918.687     106.698
  O     -553.626     918.414     105.399
  C     -554.147     919.278     107.661
  O     -555.430     918.621     107.500
  C     -553.537     918.899     109.038
  N     -553.877     922.893     112.201
  C     -554.804     921.992     111.784
  N     -554.642     920.959     110.945
  C     -553.351     920.894     110.506
  C     -552.319     921.722     110.870
  C     -552.608     922.780     111.741
  N     -551.671     923.706     112.181
  N     -551.151     921.341     110.242
  C     -551.481     920.300     109.503
  N     -552.802     919.985     109.642
  O     -549.002     915.942     105.843
  O     -548.099     918.347     105.683
  H     -556.075     919.173     107.985
  H     -548.314     915.857     105.147
  H     -555.796     922.124     112.176
  H     -550.814     919.756     108.851
  H     -554.317     918.579     109.744
  H     -554.315     920.347     107.528
  H     -552.254     919.370     106.615
  H     -553.530     916.649     107.301
  H     -551.035     916.080     107.661
  H     -551.999     924.470     112.746
  H     -550.759     923.681     111.765
  H     -551.609     916.214     105.997
  P     -553.624     919.601     104.315
  C     -551.777     918.739     102.747
  O     -553.182     918.882     102.940
  O     -552.304     920.413     104.751
  O     -554.878     920.406     104.261
  H     -551.544     919.808     104.908
  H     -551.614     918.216     101.792
  H     -551.321     918.193     103.558
  H     -551.309     919.750     102.670
  H     -546.994     916.044     109.081
  H     -546.468     916.433     107.461
  H     -547.676     915.196     107.715

 3  4  5  6  7  8  9  10  11  12  22  25  29  30  31  32 0
 6-311+G(2d,p)
 ****
 33  36  37 0
 6-311+G(2d,p)
 ****
 1  2  13  14  15  16  17  18  19  20  21  23  24  26 0
 3-21G
 ****
 27  28  34  35  38  39  40  41  42  43  44  45  46  47  48 0
 3-21G
 ****


