%nproc=1
%NoSave
%Mem=1900MB
#P OB98/GEN NMR

erre ene a

0 1
  C        1.649    -297.012      59.531
  O        1.230    -296.376      58.336
  P       -0.015    -296.959      57.512
  C        1.580    -298.049      55.764
  O        0.523    -298.224      56.682
  C        1.368    -298.902      54.505
  O        1.545    -300.293      54.878
  C       -0.027    -298.809      53.895
  O        0.036    -299.291      52.549
  C       -0.809    -299.784      54.750
  O       -2.008    -300.218      54.116
  C        0.235    -300.898      55.029
  N        0.079    -301.456      56.384
  C       -0.657    -302.630      56.505
  O       -1.103    -303.240      55.535
  N       -0.935    -303.035      57.782
  C       -0.594    -302.358      58.917
  O       -1.107    -302.562      60.015
  C        0.376    -301.271      58.737
  C        0.649    -300.855      57.498
  O       -0.251    -295.841      56.389
  O       -1.245    -297.207      58.319
  H       -2.622    -299.445      54.099
  H       -0.956    -295.228      56.670
  H       -1.593    -303.806      57.866
  H        0.793    -300.801      59.625
  H        1.323    -300.015      57.333
  H        0.144    -301.722      54.311
  H       -1.091    -299.292      55.687
  H       -0.463    -297.805      53.917
  H        2.133    -298.652      53.761
  H        2.529    -298.305      56.250
  H        1.659    -296.994      55.470
  P       -1.054    -298.738      51.503
  C       -2.809    -300.537      52.035
  O       -2.491    -299.161      52.076
  O       -0.810    -299.076      50.069
  O       -1.019    -297.152      51.754
  H       -1.408    -296.691      50.989
  H       -3.490    -300.768      52.859
  H       -1.914    -301.160      52.128
  H       -3.310    -300.762      51.087
  H        2.487    -296.487      59.940
  H        1.930    -298.022      59.318
  H        0.846    -297.007      60.238

 3  4  5  6  7  8  9  10  11  12  13  23  28  29  30  31  32 0
 6-311+G(2d,p)
 ****
 33  34 0
 6-311+G(2d,p)
 ****
 1  2  14  15  16  17  18  19  20  21  22  24  25  26  27 0
 3-21G
 ****
 35  36  37  38  39  40  41  42  43  44  45 0
 3-21G
 ****


