%nproc=1
%NoSave
%Mem=1900MB
#P OB98/GEN NMR

erre ene a

0 1
  C       47.221      -0.315       7.387
  O       46.776      -1.032       8.523
  H       47.495      -1.029       6.606
  H       48.102       0.279       7.646
  H       46.429       0.336       7.009
  P       46.109      -0.166       9.694
  C       44.176       0.913       8.288
  O       45.390       1.097       9.003
  C       43.340       2.188       8.338
  O       42.235       2.113       7.416
  C       42.672       2.444       9.679
  O       43.586       2.857      10.671
  C       41.668       3.522       9.292
  O       42.262       4.825       9.297
  C       41.275       3.103       7.855
  N       39.909       2.618       7.790
  C       38.926       3.610       7.675
  O       39.249       4.796       7.616
  N       37.609       3.231       7.669
  C       37.298       1.979       7.794
  N       35.973       1.674       7.814
  C       38.303       0.903       7.920
  C       39.578       1.290       7.911
  O       47.382       0.485      10.408
  O       45.220      -0.934      10.611
  H       43.104       4.745       8.804
  H       48.008       0.901       9.792
  H       37.992      -0.127       8.008
  H       40.380       0.567       7.998
  H       41.369       3.955       7.168
  H       40.825       3.554       9.987
  H       42.113       1.555       9.998
  H       43.982       3.029       8.045
  H       35.319       2.447       7.781
  H       43.610       0.071       8.701
  H       35.613       0.748       7.985
  H       44.433       0.664       7.254
  P       43.168       2.914      12.215
  C       43.943       0.592      13.018
  O       42.832       1.405      12.659
  O       42.106       3.904      12.554
  O       44.563       3.174      12.958
  H       45.239       2.491      12.811
  H       43.598      -0.383      13.293
  H       44.456       1.035      13.846
  H       44.610       0.512      12.185

 6  7  8  9  10  11  12  13  14  15  16  26  30  31  32  33  35 0
 6-311+G(2d,p)
 ****
 37  38 0
 6-311+G(2d,p)
 ****
 1  2  3  4  5  17  18  19  20  21  22  23  24  25 0
 3-21G
 ****
 27  28  29  34  36  39  40  41  42  43  44  45  46 0
 3-21G
 ****


