%nproc=1
%NoSave
%Mem=1900MB
#P OB98/GEN NMR

erre ene a

0 1
  C      -86.999     -67.506     194.634
  O      -87.986     -68.376     195.203
  P      -89.429     -68.436     194.507
  C      -88.897     -70.226     192.694
  O      -89.241     -68.877     192.977
  C      -90.132     -71.012     192.244
  O      -90.733     -70.435     191.067
  C      -89.837     -72.459     191.878
  O      -89.776     -73.286     193.031
  C      -91.058     -72.807     191.042
  O      -92.172     -73.105     191.907
  C      -91.313     -71.502     190.281
  N      -92.220     -70.689     185.305
  C      -93.033     -70.669     186.385
  N      -92.721     -70.914     187.675
  C      -91.413     -71.189     187.804
  C      -90.465     -71.246     186.797
  C      -90.911     -70.980     185.492
  N      -90.078     -71.000     184.397
  N      -89.225     -71.570     187.308
  C      -89.421     -71.690     188.606
  N      -90.728     -71.478     188.952
  O      -89.840     -66.893     194.396
  O      -90.440     -69.217     195.278
  H      -91.916     -73.876     192.447
  H      -90.805     -66.799     194.511
  H      -94.072     -70.425     186.186
  H      -88.651     -71.924     189.329
  H      -92.382     -71.287     190.169
  H      -90.900     -73.687     190.414
  H      -88.928     -72.532     191.267
  H      -90.868     -70.981     193.059
  H      -88.456     -70.694     193.578
  H      -90.465     -70.771     183.496
  H      -89.097     -71.194     184.534
  H      -88.122     -70.239     191.921
  P      -88.393     -74.050     193.314
  C      -87.223     -72.188     194.696
  O      -87.289     -72.902     193.478
  O      -88.056     -74.718     191.899
  O      -88.460     -75.059     194.409
  H      -87.555     -75.545     192.030
  H      -86.256     -71.681     194.754
  H      -87.317     -72.859     195.553
  H      -88.018     -71.438     194.728
  H      -86.095     -67.573     195.202
  H      -87.358     -66.498     194.653
  H      -86.807     -67.797     193.622

 3  4  5  6  7  8  9  10  11  12  22  25  29  30  31  32 0
 6-311+G(2d,p)
 ****
 33  36  37 0
 6-311+G(2d,p)
 ****
 1  2  13  14  15  16  17  18  19  20  21  23  24  26 0
 3-21G
 ****
 27  28  34  35  38  39  40  41  42  43  44  45  46  47  48 0
 3-21G
 ****


