%nproc=1
%NoSave
%Mem=1900MB
#P OB98/GEN NMR

erre ene a

0 1
  C      -46.135     270.062    -100.832
  O      -47.248     270.774    -101.348
  P      -48.707     270.400    -100.764
  C      -49.613     272.821    -101.245
  O      -49.362     271.789    -100.304
  C      -48.564     273.937    -101.101
  O      -47.258     273.425    -101.405
  C      -48.766     275.125    -102.035
  O      -49.803     275.976    -101.588
  C      -47.379     275.748    -102.029
  O      -47.204     276.552    -100.839
  C      -46.475     274.504    -101.971
  N      -45.899     274.146    -103.260
  C      -44.513     274.168    -103.359
  O      -43.783     274.471    -102.427
  N      -43.995     273.846    -104.595
  C      -44.711     273.574    -105.722
  O      -44.201     273.347    -106.815
  C      -46.179     273.592    -105.574
  C      -46.696     273.873    -104.368
  O      -48.296     269.675     -99.401
  O      -49.521     269.578    -101.706
  H      -47.433     269.991     -99.057
  H      -46.297     276.926    -100.898
  H      -42.989     273.837    -104.681
  H      -46.785     273.401    -106.440
  H      -47.766     273.907    -104.239
  H      -45.636     274.665    -101.259
  H      -47.196     276.395    -102.890
  H      -49.006     274.768    -103.053
  H      -48.556     274.274    -100.053
  H      -50.609     273.236    -101.054
  H      -49.581     272.403    -102.266
  P      -50.950     276.354    -102.656
  C      -52.771     277.070    -100.914
  O      -52.351     276.138    -101.900
  O      -50.851     275.105    -103.660
  O      -50.753     277.681    -103.306
  H      -50.741     274.254    -103.195
  H      -53.849     276.973    -100.780
  H      -52.533     278.089    -101.185
  H      -52.269     276.821     -99.948
  H      -45.240     270.409    -101.304
  H      -46.259     269.017    -101.027
  H      -46.067     270.223     -99.776

 3  4  5  6  7  8  9  10  11  12  13  24  28  29  30  31  32 0
 6-311+G(2d,p)
 ****
 33  34 0
 6-311+G(2d,p)
 ****
 1  2  14  15  16  17  18  19  20  21  22  23  25  26  27 0
 3-21G
 ****
 35  36  37  38  39  40  41  42  43  44  45 0
 3-21G
 ****


