%nproc=1
%NoSave
%Mem=1900MB
#P OB98/GEN NMR

erre ene a

0 1
  C      -24.701     152.122      -8.454
  O      -25.800     151.589      -9.166
  H      -23.940     152.480      -9.152
  H      -25.047     152.964      -7.849
  H      -24.274     151.363      -7.795
  P      -25.497     150.361     -10.152
  C      -24.294     150.059     -12.431
  O      -24.583     150.932     -11.347
  C      -24.015     150.873     -13.693
  O      -25.264     151.457     -14.145
  C      -22.994     152.009     -13.512
  O      -21.898     151.841     -14.416
  C      -23.753     153.267     -13.904
  O      -22.968     154.183     -14.665
  C      -24.933     152.732     -14.710
  N      -26.659     157.296     -16.182
  C      -25.688     156.505     -16.685
  N      -25.347     155.254     -16.314
  C      -26.150     154.817     -15.327
  C      -27.196     155.497     -14.729
  C      -27.432     156.806     -15.184
  N      -28.387     157.633     -14.635
  N      -27.785     154.724     -13.745
  C      -27.076     153.614     -13.719
  N      -26.066     153.633     -14.644
  O      -26.912     150.097     -10.856
  O      -24.972     149.130      -9.490
  H      -22.619     153.687     -15.430
  H      -27.118     149.143     -10.831
  H      -25.097     156.937     -17.488
  H      -27.220     152.792     -13.028
  H      -24.677     152.578     -15.766
  H      -24.092     153.778     -12.993
  H      -22.619     152.080     -12.483
  H      -23.679     150.183     -14.478
  H      -25.153     149.403     -12.613
  H      -28.410     158.594     -14.941
  H      -28.892     157.314     -13.819
  H      -23.431     149.439     -12.167
  P      -20.420     151.996     -13.797
  C      -19.451     153.926     -12.341
  O      -20.190     153.556     -13.498
  O      -19.474     151.720     -15.058
  O      -20.136     151.067     -12.666
  H      -18.610     151.374     -14.758
  H      -19.387     154.993     -12.285
  H      -18.466     153.512     -12.400
  H      -19.944     153.552     -11.468

 6  7  8  9  10  11  12  13  14  15  25  28  32  33  34  35 0
 6-311+G(2d,p)
 ****
 36  39  40 0
 6-311+G(2d,p)
 ****
 1  2  3  4  5  16  17  18  19  20  21  22  23  24 0
 3-21G
 ****
 26  27  29  30  31  37  38  41  42  43  44  45  46  47  48 0
 3-21G
 ****


