%nproc=1
%NoSave
%Mem=1900MB
#P OB98/GEN NMR

erre ene a

0 1
  C      222.761    -313.639     971.731
  O      223.759    -313.481     970.719
  P      224.258    -314.711     969.794
  C      222.629    -314.264     967.828
  O      223.022    -315.174     968.861
  C      222.946    -314.816     966.434
  O      222.202    -316.046     966.202
  C      222.567    -313.890     965.274
  O      223.550    -312.881     965.117
  C      222.462    -314.889     964.120
  O      223.766    -315.188     963.604
  C      221.863    -316.103     964.813
  N      218.060    -317.865     961.834
  C      219.423    -317.980     961.748
  N      220.361    -317.475     962.579
  C      219.782    -316.815     963.614
  C      218.428    -316.639     963.840
  C      217.550    -317.187     962.891
  N      216.175    -317.068     962.987
  N      218.219    -315.891     964.983
  C      219.438    -315.669     965.441
  N      220.408    -316.206     964.658
  O      224.906    -315.817     970.550
  O      225.281    -314.044     968.747
  H      224.191    -314.338     963.374
  H      225.930    -314.714     968.470
  H      219.784    -318.545     960.889
  H      219.662    -315.101     966.353
  H      222.292    -317.048     964.426
  H      221.852    -314.496     963.289
  H      221.581    -313.442     965.476
  H      224.009    -315.071     966.399
  H      223.194    -313.314     967.980
  H      215.597    -317.465     962.245
  H      215.779    -316.512     963.740
  H      221.561    -314.055     967.939
  P      223.337    -311.726     964.029
  C      222.679    -310.070     965.875
  O      222.307    -310.671     964.641
  O      223.029    -312.193     962.639
  O      224.729    -310.912     964.078
  H      224.899    -310.527     963.191
  H      222.464    -310.759     966.693
  H      222.094    -309.146     966.000
  H      223.741    -309.817     965.898
  H      222.590    -312.699     972.213
  H      223.095    -314.355     972.453
  H      221.851    -313.981     971.284

 3  4  5  6  7  8  9  10  11  12  22  25  29  30  31  32 0
 6-311+G(2d,p)
 ****
 33  36  37 0
 6-311+G(2d,p)
 ****
 1  2  13  14  15  16  17  18  19  20  21  23  24  26 0
 3-21G
 ****
 27  28  34  35  38  39  40  41  42  43  44  45  46  47  48 0
 3-21G
 ****


