%nproc=1
%NoSave
%Mem=1900MB
#P OB98/GEN NMR

erre ene a

0 1
  C     -182.996     188.034      -8.761
  O     -183.427     188.820      -7.669
  H     -181.919     187.869      -8.667
  H     -183.190     188.549      -9.708
  H     -183.500     187.064      -8.751
  P     -184.958     189.304      -7.636
  C     -186.397     190.727      -9.258
  O     -185.099     190.261      -8.923
  C     -186.479     191.033     -10.754
  O     -186.044     189.900     -11.537
  C     -187.884     191.341     -11.269
  O     -188.348     192.630     -10.899
  C     -187.651     191.218     -12.766
  O     -186.961     192.388     -13.245
  C     -186.728     189.972     -12.822
  N     -187.461     188.732     -13.080
  C     -187.437     188.247     -14.397
  O     -186.822     188.858     -15.274
  N     -188.140     187.109     -14.697
  C     -188.823     186.509     -13.767
  N     -189.544     185.409     -14.134
  C     -188.865     186.972     -12.369
  C     -188.174     188.078     -12.099
  O     -185.439     189.891      -6.349
  O     -185.794     188.017      -8.100
  H     -186.856     192.278     -14.209
  H     -186.751     188.263      -8.084
  H     -189.457     186.441     -11.640
  H     -188.166     188.490     -11.092
  H     -185.956     190.096     -13.591
  H     -188.575     191.124     -13.343
  H     -188.593     190.565     -10.959
  H     -185.781     191.857     -10.961
  H     -189.524     185.143     -15.111
  H     -186.605     191.620      -8.662
  H     -190.302     185.061     -13.555
  H     -187.145     189.959      -9.022
  P     -189.932     192.896     -10.937
  C     -191.825     192.361     -12.652
  O     -190.433     192.485     -12.407
  O     -190.023     194.493     -10.942
  O     -190.724     192.279      -9.826
  H     -190.137     194.842     -10.035
  H     -191.984     192.084     -13.673
  H     -192.306     193.297     -12.458
  H     -192.235     191.609     -12.010

 6  7  8  9  10  11  12  13  14  15  16  26  30  31  32  33  35 0
 6-311+G(2d,p)
 ****
 37  38 0
 6-311+G(2d,p)
 ****
 1  2  3  4  5  17  18  19  20  21  22  23  24  25 0
 3-21G
 ****
 27  28  29  34  36  39  40  41  42  43  44  45  46 0
 3-21G
 ****


