%nproc=1
%NoSave
%Mem=1900MB
#P OB98/GEN NMR

erre ene a

0 1
  C     -347.918    1765.504    -179.051
  O     -346.932    1765.910    -178.133
  H     -347.670    1765.921    -180.035
  H     -348.884    1765.869    -178.748
  H     -347.926    1764.403    -179.136
  P     -346.965    1765.329    -176.639
  C     -344.402    1765.092    -177.034
  O     -345.563    1764.549    -176.400
  C     -343.135    1764.692    -176.256
  O     -343.285    1765.077    -174.873
  C     -342.857    1763.172    -176.310
  O     -341.461    1762.970    -176.401
  C     -343.362    1762.686    -174.954
  O     -342.697    1761.509    -174.532
  C     -343.094    1763.898    -174.071
  N     -343.971    1761.810    -169.530
  C     -342.919    1761.624    -170.427
  N     -342.001    1760.706    -170.058
  N     -342.815    1762.233    -171.564
  C     -343.832    1763.128    -171.786
  C     -344.901    1763.407    -170.999
  C     -345.022    1762.702    -169.744
  O     -345.934    1762.835    -168.925
  N     -345.701    1764.388    -171.580
  C     -345.116    1764.643    -172.731
  N     -343.974    1763.923    -172.897
  O     -348.169    1764.537    -176.291
  O     -346.810    1766.606    -175.697
  H     -341.735    1761.642    -174.692
  H     -347.664    1766.832    -175.278
  H     -344.018    1761.314    -168.698
  H     -345.456    1765.366    -173.463
  H     -342.067    1763.906    -173.685
  H     -344.446    1762.492    -174.996
  H     -342.006    1760.215    -169.180
  H     -343.365    1762.692    -177.139
  H     -341.195    1760.556    -170.676
  H     -342.291    1765.244    -176.683
  H     -344.527    1766.187    -177.008
  H     -344.359    1764.764    -178.059
  P     -340.765    1762.972    -177.873
  C     -339.330    1764.919    -176.987
  O     -340.048    1764.387    -178.087
  O     -341.663    1762.508    -178.973
  O     -339.519    1761.966    -177.671
  H     -339.384    1761.494    -178.507
  H     -338.903    1765.861    -177.262
  H     -338.550    1764.241    -176.709
  H     -339.995    1765.056    -176.160

 6  7  8  9  10  11  12  13  14  15  26  29  33  34 0
 6-311+G(2d,p)
 ****
 36  38  39  40  41 0
 6-311+G(2d,p)
 ****
 1  2  3  4  5  16  17  18  19  20  21  22  23  24  25 0
 3-21G
 ****
 27  28  30  31  32  35  37  42  43  44  45  46  47 0
 3-21G
 ****
 48  49 0
 3-21G
 ****


