%nproc=1
%NoSave
%Mem=1900MB
#P OB98/GEN NMR

erre ene a

0 1
  C       -5.518    -259.106      94.282
  O       -6.402    -259.140      95.384
  H       -5.852    -259.836      93.540
  H       -4.505    -259.365      94.598
  H       -5.525    -258.112      93.827
  P       -6.033    -258.213      96.638
  C       -7.292    -256.374      97.976
  O       -7.198    -257.121      96.769
  C       -7.902    -255.007      97.684
  O       -6.896    -254.133      97.116
  C       -9.033    -255.036      96.666
  O      -10.263    -255.465      97.225
  C       -9.070    -253.580      96.236
  O       -9.855    -252.781      97.131
  C       -7.584    -253.178      96.284
  N       -7.002    -253.092      94.947
  C       -7.032    -251.832      94.356
  O       -7.509    -250.839      94.904
  N       -6.526    -251.756      93.088
  C       -6.052    -252.802      92.352
  O       -5.664    -252.674      91.198
  C       -6.061    -254.112      93.021
  C       -6.532    -254.198      94.268
  O       -4.778    -257.372      96.114
  O       -5.723    -258.953      97.898
  H       -3.962    -257.700      96.533
  H      -10.649    -253.313      97.339
  H       -6.536    -250.852      92.643
  H       -5.694    -254.966      92.465
  H       -6.560    -255.155      94.779
  H       -7.468    -252.200      96.770
  H       -9.507    -253.478      95.245
  H       -8.753    -255.656      95.805
  H       -8.245    -254.568      98.630
  H       -6.293    -256.234      98.400
  H       -7.903    -256.932      98.693
  P      -11.318    -256.182      96.251
  C      -13.636    -257.344      96.698
  O      -12.403    -256.866      97.211
  O      -10.432    -257.398      95.705
  O      -11.861    -255.273      95.203
  H       -9.740    -257.655      96.339
  H      -14.215    -257.762      97.494
  H      -13.448    -258.096      95.961
  H      -14.175    -256.534      96.252

 6  7  8  9  10  11  12  13  14  15  16  27  31  32  33  34  35 0
 6-311+G(2d,p)
 ****
 36  37 0
 6-311+G(2d,p)
 ****
 1  2  3  4  5  17  18  19  20  21  22  23  24  25 0
 3-21G
 ****
 26  28  29  30  38  39  40  41  42  43  44  45 0
 3-21G
 ****


