%nproc=1
%NoSave
%Mem=1900MB
#P OB98/GEN NMR

erre ene a

0 1
  C      265.394     224.612      87.416
  O      266.573     223.877      87.659
  P      267.825     224.563      88.396
  C      269.409     226.517      87.858
  O      268.457     225.593      87.340
  C      269.599     227.678      86.886
  O      268.320     228.164      86.385
  C      270.248     228.907      87.502
  O      271.584     228.798      87.935
  C      269.944     229.967      86.453
  O      270.874     229.898      85.370
  C      268.529     229.537      85.986
  N      267.484     230.417      86.522
  C      267.135     231.493      85.715
  O      267.644     231.723      84.615
  N      266.180     232.329      86.224
  C      265.592     232.228      87.454
  O      264.775     233.046      87.868
  C      266.021     231.080      88.268
  C      266.934     230.240      87.772
  O      268.801     223.612      89.000
  O      267.131     225.549      89.460
  H      271.761     230.051      85.736
  H      266.552     226.223      89.067
  H      265.916     233.133      85.666
  H      265.565     230.965      89.246
  H      267.265     229.383      88.352
  H      268.467     229.560      84.889
  H      270.000     230.980      86.863
  H      269.672     229.182      88.406
  H      270.167     227.315      86.022
  H      270.366     225.999      87.989
  H      269.084     226.872      88.845
  P      272.226     229.720      89.072
  C      272.986     232.181      89.317
  O      272.378     231.202      88.502
  O      273.389     229.139      89.821
  O      270.997     229.877      90.091
  H      271.333     229.969      90.998
  H      272.964     233.143      88.791
  H      274.025     231.924      89.519
  H      272.438     232.290      90.259
  H      264.680     223.988      86.920
  H      265.621     225.456      86.798
  H      264.986     224.950      88.346

 3  4  5  6  7  8  9  10  11  12  13  23  28  29  30  31  32 0
 6-311+G(2d,p)
 ****
 33  34 0
 6-311+G(2d,p)
 ****
 1  2  14  15  16  17  18  19  20  21  22  24  25  26  27 0
 3-21G
 ****
 35  36  37  38  39  40  41  42  43  44  45 0
 3-21G
 ****


