%nproc=1
%NoSave
%Mem=1900MB
#P OB98/GEN NMR

erre ene a

0 1
  C     -897.420     620.557    -453.768
  O     -897.080     621.527    -452.797
  H     -896.550     620.374    -454.404
  H     -898.240     620.923    -454.397
  H     -897.710     619.618    -453.291
  P     -898.210     622.021    -451.776
  C     -896.680     622.660    -449.789
  O     -897.520     623.132    -450.835
  C     -895.950     623.833    -449.124
  O     -895.170     624.506    -450.154
  C     -896.910     624.852    -448.502
  O     -896.620     625.146    -447.131
  C     -896.880     626.017    -449.489
  O     -897.190     627.274    -448.932
  C     -895.480     625.910    -450.101
  N     -895.360     626.502    -451.425
  C     -894.670     627.721    -451.521
  O     -894.130     628.302    -450.577
  N     -894.600     628.262    -452.780
  C     -895.140     627.737    -453.912
  O     -895.030     628.256    -455.019
  C     -895.870     626.475    -453.750
  C     -895.950     625.925    -452.529
  O     -898.940     620.951    -451.042
  O     -899.200     622.891    -452.691
  H     -897.110     627.942    -449.633
  H     -900.000     622.372    -452.887
  H     -894.090     629.126    -452.863
  H     -896.320     626.029    -454.627
  H     -896.480     624.990    -452.373
  H     -894.740     626.391    -449.458
  H     -897.630     625.822    -450.273
  H     -897.930     624.455    -448.466
  H     -895.240     623.432    -448.385
  H     -895.970     621.953    -450.221
  H     -897.290     622.136    -449.038
  P     -897.060     624.234    -445.896
  C     -894.790     625.056    -444.859
  O     -896.130     624.612    -444.646
  O     -897.220     622.773    -446.196
  O     -898.500     624.823    -445.491
  H     -899.030     624.069    -445.158
  H     -894.328     625.260    -443.916
  H     -894.799     625.947    -445.452
  H     -894.239     624.294    -445.369

 6  7  8  9  10  11  12  13  14  15  16  26  31  32  33  34  35 0
 6-311+G(2d,p)
 ****
 36  37 0
 6-311+G(2d,p)
 ****
 1  2  3  4  5  17  18  19  20  21  22  23  24  25 0
 3-21G
 ****
 27  28  29  30  38  39  40  41  42  43  44  45 0
 3-21G
 ****


