%nproc=1
%NoSave
%Mem=1900MB
#P OB98/GEN NMR

erre ene a

0 1
  C     -116.989      53.396     117.544
  O     -117.148      52.582     116.386
  P     -117.100      53.307     114.958
  C     -119.262      52.247     113.918
  O     -118.602      53.399     114.406
  C     -120.283      52.616     112.826
  O     -120.679      51.402     112.138
  C     -121.581      53.237     113.331
  O     -122.225      53.902     112.241
  C     -122.380      52.011     113.715
  O     -123.770      52.303     113.828
  C     -121.993      51.004     112.610
  N     -121.962      49.599     113.073
  C     -123.167      48.911     113.182
  O     -124.264      49.401     112.917
  N     -123.088      47.628     113.650
  C     -121.945      46.964     113.975
  O     -121.937      45.845     114.472
  C     -120.694      47.685     113.709
  C     -120.758      48.950     113.289
  O     -116.399      52.226     114.012
  O     -116.366      54.605     114.968
  H     -124.068      52.597     112.936
  H     -115.479      52.489     113.823
  H     -123.959      47.140     113.798
  H     -119.762      47.166     113.891
  H     -119.841      49.505     113.107
  H     -122.695      51.052     111.768
  H     -122.045      51.644     114.690
  H     -121.459      53.927     114.170
  H     -119.801      53.270     112.090
  H     -119.757      51.726     114.740
  H     -118.525      51.549     113.503
  P     -122.232      55.506     112.237
  C     -124.781      55.794     112.088
  O     -123.627      55.951     112.890
  O     -121.886      56.159     110.942
  O     -121.176      55.870     113.388
  H     -120.876      56.791     113.278
  H     -125.642      55.620     112.739
  H     -124.680      54.950     111.399
  H     -124.948      56.710     111.515
  H     -117.042      52.784     118.420
  H     -117.767      54.130     117.574
  H     -116.038      53.886     117.508

 3  4  5  6  7  8  9  10  11  12  13  23  28  29  30  31  32 0
 6-311+G(2d,p)
 ****
 33  34 0
 6-311+G(2d,p)
 ****
 1  2  14  15  16  17  18  19  20  21  22  24  25  26  27 0
 3-21G
 ****
 35  36  37  38  39  40  41  42  43  44  45 0
 3-21G
 ****


