%nproc=1
%NoSave
%Mem=1900MB
#P OB98/GEN NMR

erre ene a

0 1
  C       65.119      95.194     146.262
  O       64.147      95.035     147.280
  P       63.621      96.288     148.142
  C       65.514      95.768     149.827
  O       64.874      96.750     149.029
  C       66.862      96.288     150.335
  O       67.746      96.468     149.199
  C       66.779      97.631     151.077
  O       67.768      97.602     152.116
  C       67.162      98.634     150.005
  O       67.632      99.860     150.542
  C       68.211      97.836     149.220
  N       68.407      98.345     147.869
  C       69.675      98.823     147.533
  O       70.587      98.836     148.358
  N       69.889      99.285     146.257
  C       68.901      99.342     145.416
  N       69.175      99.750     144.145
  C       67.522      98.950     145.763
  C       67.356      98.446     146.983
  O       62.371      96.037     148.911
  O       63.509      97.478     147.081
  H       66.879     100.323     150.958
  H       62.649      97.481     146.592
  H       66.726      99.044     145.038
  H       66.386      98.109     147.318
  H       69.165      97.833     149.758
  H       66.286      98.852     149.382
  H       65.797      97.811     151.520
  H       67.306      95.521     150.980
  H       70.156      99.843     143.899
  H       65.689      94.881     149.212
  H       68.557      99.515     143.378
  H       64.860      95.486     150.659
  P       67.550      98.540     153.399
  C       69.829      99.735     153.050
  O       68.430      99.866     153.201
  O       68.387      97.751     154.521
  O       66.140      98.728     153.853
  H       68.025      97.971     155.403
  H       70.261     100.734     152.919
  H       70.066      99.137     152.167
  H       70.268      99.278     153.939
  H       65.327      94.244     145.816
  H       66.017      95.593     146.685
  H       64.748      95.865     145.516

 3  4  5  6  7  8  9  10  11  12  13  23  27  28  29  30  32 0
 6-311+G(2d,p)
 ****
 34  35 0
 6-311+G(2d,p)
 ****
 1  2  14  15  16  17  18  19  20  21  22  24  25  26 0
 3-21G
 ****
 31  33  36  37  38  39  40  41  42  43  44  45  46 0
 3-21G
 ****


