%nproc=1
%NoSave
%Mem=1900MB
#P OB98/GEN NMR

erre ene a

0 1
  C      554.313    -274.888      12.112
  O      553.718    -273.675      11.715
  H      554.018    -275.668      11.405
  H      553.960    -275.159      13.112
  H      555.405    -274.816      12.116
  P      554.327    -272.298      12.267
  C      555.641    -271.885      10.081
  O      554.690    -271.365      11.011
  C      555.134    -271.774       8.640
  O      553.887    -272.501       8.510
  C      554.853    -270.328       8.223
  O      555.985    -269.635       7.710
  C      553.788    -270.514       7.145
  O      554.382    -270.707       5.852
  C      553.049    -271.781       7.592
  N      547.952    -271.710       7.115
  C      548.918    -271.926       6.137
  N      548.456    -272.093       4.882
  N      550.193    -271.939       6.385
  C      550.512    -271.645       7.672
  C      549.651    -271.407       8.717
  C      548.224    -271.469       8.455
  O      547.340    -271.303       9.281
  N      550.327    -271.113       9.875
  C      551.599    -271.090       9.506
  N      551.764    -271.489       8.202
  O      555.775    -272.725      12.811
  O      553.536    -271.634      13.354
  H      554.922    -271.524       5.888
  H      556.024    -272.160      13.561
  H      546.974    -271.737       6.870
  H      552.436    -270.843      10.154
  H      552.851    -272.450       6.741
  H      553.152    -269.627       7.068
  H      547.485    -272.007       4.620
  H      554.408    -269.769       9.050
  H      549.127    -272.060       4.115
  H      555.856    -272.256       7.969
  H      555.795    -272.931      10.346
  H      556.592    -271.367      10.191
  P      556.346    -268.167       8.228
  C      557.770    -269.136      10.213
  O      557.672    -268.259       9.111
  O      555.206    -267.871       9.303
  O      556.410    -267.105       7.172
  H      554.488    -267.317       8.915
  H      558.737    -269.039      10.661
  H      557.631    -270.143       9.881
  H      557.017    -268.890      10.932

 6  7  8  9  10  11  12  13  14  15  26  29  33  34 0
 6-311+G(2d,p)
 ****
 36  38  39  40  41 0
 6-311+G(2d,p)
 ****
 1  2  3  4  5  16  17  18  19  20  21  22  23  24  25 0
 3-21G
 ****
 27  28  30  31  32  35  37  42  43  44  45  46  47 0
 3-21G
 ****
 48  49 0
 3-21G
 ****


