%nproc=1
%NoSave
%Mem=1900MB
#P OB98/GEN NMR

erre ene a

0 1
  C      -74.935     -57.204     120.798
  O      -74.582     -57.983     121.952
  P      -75.651     -58.058     123.149
  C      -74.071     -58.084     125.242
  O      -74.900     -58.814     124.348
  C      -72.908     -58.958     125.710
  O      -71.923     -59.105     124.657
  C      -72.145     -58.393     126.902
  O      -72.882     -58.547     128.108
  C      -70.858     -59.203     126.831
  O      -71.052     -60.504     127.411
  C      -70.649     -59.335     125.303
  N      -69.619     -58.440     124.788
  C      -68.372     -58.532     125.404
  O      -68.140     -59.294     126.343
  N      -67.402     -57.695     124.918
  C      -67.562     -56.781     123.917
  O      -66.652     -56.067     123.511
  C      -68.913     -56.695     123.339
  C      -69.866     -57.511     123.793
  O      -76.677     -59.137     122.573
  O      -76.243     -56.728     123.484
  H      -76.248     -59.833     122.048
  H      -71.166     -60.364     128.372
  H      -66.489     -57.758     125.339
  H      -69.083     -55.960     122.561
  H      -70.870     -57.463     123.381
  H      -70.361     -60.363     125.050
  H      -70.031     -58.724     127.366
  H      -71.925     -57.331     126.735
  H      -73.308     -59.955     125.952
  H      -74.653     -57.763     126.111
  H      -73.711     -57.181     124.734
  P      -73.202     -57.205     128.938
  C      -72.808     -57.954     131.411
  O      -73.723     -57.677     130.378
  O      -74.520     -56.686     128.189
  O      -72.075     -56.223     128.948
  H      -75.161     -57.395     128.012
  H      -73.336     -57.912     132.371
  H      -71.994     -57.226     131.431
  H      -72.399     -58.959     131.279
  H      -74.138     -57.241     120.085
  H      -75.104     -56.189     121.091
  H      -75.826     -57.602     120.358

 3  4  5  6  7  8  9  10  11  12  13  24  28  29  30  31  32 0
 6-311+G(2d,p)
 ****
 33  34 0
 6-311+G(2d,p)
 ****
 1  2  14  15  16  17  18  19  20  21  22  23  25  26  27 0
 3-21G
 ****
 35  36  37  38  39  40  41  42  43  44  45 0
 3-21G
 ****


