%nproc=1
%NoSave
%Mem=1900MB
#P OB98/GEN NMR

erre ene a

0 1
  C     1089.585    -891.260    -516.152
  O     1089.796    -892.050    -517.313
  P     1091.181    -892.880    -517.401
  C     1091.385    -892.900    -520.030
  O     1091.162    -893.620    -518.820
  C     1090.481    -893.440    -521.134
  O     1090.792    -894.840    -521.405
  C     1088.991    -893.430    -520.804
  O     1088.436    -892.120    -520.912
  C     1088.446    -894.440    -521.803
  O     1088.288    -893.820    -523.104
  C     1089.559    -895.490    -521.839
  N     1089.286    -896.670    -521.024
  C     1089.288    -897.900    -521.696
  O     1089.489    -897.980    -522.920
  N     1088.978    -899.000    -520.933
  C     1088.648    -898.980    -519.613
  O     1088.351    -900.000    -518.990
  C     1088.634    -897.660    -518.967
  C     1088.956    -896.570    -519.668
  O     1090.905    -894.030    -516.329
  O     1092.393    -892.030    -517.132
  H     1089.951    -894.230    -516.229
  H     1087.871    -894.510    -523.692
  H     1089.003    -899.880    -521.398
  H     1088.362    -897.630    -517.914
  H     1088.948    -895.600    -519.206
  H     1089.756    -895.810    -522.869
  H     1087.464    -894.840    -521.511
  H     1088.822    -893.800    -519.781
  H     1090.667    -892.870    -522.053
  H     1092.421    -893.030    -520.325
  H     1091.188    -891.830    -519.861
  P     1087.534    -891.590    -519.703
  C     1085.147    -891.780    -520.735
  O     1086.222    -890.960    -520.362
  O     1088.371    -890.320    -519.198
  O     1087.285    -892.640    -518.643
  H     1088.725    -889.800    -519.925
  H     1084.235    -891.150    -520.823
  H     1084.957    -892.550    -520.014
  H     1085.348    -892.230    -521.715
  H     1088.638    -890.768    -516.223
  H     1090.362    -890.528    -516.072
  H     1089.597    -891.888    -515.286

 3  4  5  6  7  8  9  10  11  12  13  24  28  29  30  31  32 0
 6-311+G(2d,p)
 ****
 33  34 0
 6-311+G(2d,p)
 ****
 1  2  14  15  16  17  18  19  20  21  22  23  25  26  27 0
 3-21G
 ****
 35  36  37  38  39  40  41  42  43  44  45 0
 3-21G
 ****


