%nproc=1
%NoSave
%Mem=1900MB
#P OB98/GEN NMR

erre ene a

0 1
  C     -166.024     105.949    -301.251
  O     -165.753     106.712    -300.092
  H     -167.101     105.970    -301.442
  H     -165.718     104.913    -301.092
  H     -165.504     106.364    -302.118
  P     -164.208     106.980    -299.751
  C     -164.240     105.113    -297.946
  O     -163.636     105.615    -299.129
  C     -163.255     104.235    -297.180
  O     -162.938     103.048    -297.944
  C     -161.922     104.910    -296.873
  O     -161.999     105.730    -295.714
  C     -161.044     103.695    -296.625
  O     -161.310     103.160    -295.311
  C     -161.540     102.724    -297.704
  N     -157.255     101.479    -300.117
  C     -157.648     101.232    -298.812
  N     -156.765     100.562    -298.038
  N     -158.795     101.604    -298.312
  C     -159.572     102.277    -299.196
  C     -159.296     102.583    -300.513
  C     -158.027     102.152    -301.057
  O     -157.641     102.327    -302.210
  N     -160.331     103.259    -301.098
  C     -161.222     103.385    -300.133
  N     -160.808     102.809    -298.959
  O     -164.272     107.962    -298.484
  O     -163.401     107.573    -300.857
  H     -161.055     103.847    -294.671
  H     -163.534     108.598    -298.542
  H     -156.356     101.179    -300.446
  H     -162.182     103.877    -300.234
  H     -161.497     101.679    -297.377
  H     -159.979     103.929    -296.665
  H     -155.845     100.289    -298.345
  H     -161.544     105.465    -297.737
  H     -157.040     100.339    -297.088
  H     -163.746     103.907    -296.252
  H     -165.120     104.519    -298.216
  H     -164.557     105.956    -297.323
  P     -160.897     106.887    -295.546
  C     -159.478     105.738    -293.698
  O     -159.560     106.143    -295.060
  O     -161.385     107.665    -294.231
  O     -160.754     107.798    -296.718
  H     -161.032     108.575    -294.233
  H     -158.537     105.260    -293.524
  H     -160.271     105.054    -293.481
  H     -159.564     106.596    -293.065

 6  7  8  9  10  11  12  13  14  15  26  29  33  34 0
 6-311+G(2d,p)
 ****
 36  38  39  40  41 0
 6-311+G(2d,p)
 ****
 1  2  3  4  5  16  17  18  19  20  21  22  23  24  25 0
 3-21G
 ****
 27  28  30  31  32  35  37  42  43  44  45  46  47 0
 3-21G
 ****
 48  49 0
 3-21G
 ****


