%nproc=1
%NoSave
%Mem=1900MB
#P OB98/GEN NMR

erre ene a

0 1
  C     -282.281    -349.886     708.434
  O     -283.045    -350.478     707.405
  P     -282.377    -351.536     706.398
  C     -284.335    -353.173     706.785
  O     -282.913    -352.990     706.835
  C     -284.748    -354.264     707.759
  O     -284.282    -353.973     709.108
  C     -286.261    -354.411     707.913
  O     -286.989    -354.872     706.794
  C     -286.345    -355.242     709.189
  O     -286.139    -356.637     708.913
  C     -285.176    -354.667     710.022
  N     -285.642    -353.796     711.099
  C     -286.258    -354.433     712.168
  O     -286.425    -355.649     712.232
  N     -286.722    -353.607     713.164
  C     -286.676    -352.250     713.172
  O     -287.153    -351.576     714.063
  C     -286.023    -351.631     711.999
  C     -285.546    -352.417     711.032
  O     -280.888    -351.436     706.270
  O     -283.172    -351.276     705.021
  H     -285.354    -356.712     708.333
  H     -284.123    -351.419     705.075
  H     -287.188    -354.046     713.942
  H     -285.956    -350.547     711.981
  H     -285.054    -351.976     710.153
  H     -284.584    -355.479     710.465
  H     -287.326    -355.156     709.661
  H     -286.680    -353.428     708.159
  H     -284.282    -355.208     707.456
  H     -284.608    -353.474     705.766
  H     -284.837    -352.220     706.999
  P     -288.216    -354.073     706.150
  C     -287.081    -354.121     703.814
  O     -287.703    -353.345     704.817
  O     -289.067    -353.279     707.094
  O     -289.094    -355.282     705.549
  H     -290.036    -355.028     705.572
  H     -286.766    -353.458     702.998
  H     -287.790    -354.854     703.401
  H     -286.209    -354.641     704.210
  H     -282.897    -349.214     708.995
  H     -281.463    -349.346     708.005
  H     -281.904    -350.649     709.082

 3  4  5  6  7  8  9  10  11  12  13  23  28  29  30  31  32 0
 6-311+G(2d,p)
 ****
 33  34 0
 6-311+G(2d,p)
 ****
 1  2  14  15  16  17  18  19  20  21  22  24  25  26  27 0
 3-21G
 ****
 35  36  37  38  39  40  41  42  43  44  45 0
 3-21G
 ****


